output/2_TAP2_1/Trecho_MT_2_TAP2_1.dss
New "Line.SMT_2446" phases=3 bus1="86751.1.2.3" bus2="86761.1.2.3" linecode="56_3" length=0.03266 units=km
New "Line.SMT_2447" phases=3 bus1="86761.1.2.3" bus2="1CF155.1.2.3" linecode="56_3" length=0.01507 units=km
New "Line.SMT_2448" phases=3 bus1="86771.1.2.3" bus2="10931.1.2.3" linecode="70_3" length=0.04872 units=km
New "Line.SMT_2452" phases=3 bus1="86921.1.2.3" bus2="27121.1.2.3" linecode="3_3" length=0.03981 units=km
New "Line.SMT_2451" phases=3 bus1="25191.1.2.3" bus2="86921.1.2.3" linecode="3_3" length=0.04119 units=km
New "Line.SMT_2436" phases=3 bus1="27391.1.2.3" bus2="86491.1.2.3" linecode="3_3" length=0.03109 units=km
New "Line.SMT_2437" phases=3 bus1="86491.1.2.3" bus2="27371.1.2.3" linecode="3_3" length=0.04391 units=km
New "Line.SMT_2438" phases=3 bus1="78281.1.2.3" bus2="86701.1.2.3" linecode="56_3" length=0.00352 units=km
New "Line.SMT_2439" phases=3 bus1="86501.1.2.3" bus2="86701.1.2.3" linecode="56_3" length=0.00417 units=km
New "Line.SMT_2440" phases=3 bus1="86511.1.2.3" bus2="86501.1.2.3" linecode="114_3" length=0.04450 units=km
New "Line.SMT_2441" phases=3 bus1="86541.1.2.3" bus2="86511.1.2.3" linecode="114_3" length=0.03178 units=km
New "Line.SMT_2442" phases=3 bus1="86571.1.2.3" bus2="86541.1.2.3" linecode="114_3" length=0.02701 units=km
New "Line.SMT_2443" phases=3 bus1="86691.1.2.3" bus2="86701.1.2.3" linecode="56_3" length=0.03830 units=km
New "Line.SMT_2444" phases=3 bus1="86701.1.2.3" bus2="78291.1.2.3" linecode="56_3" length=0.03348 units=km
New "Line.SMT_2445" phases=3 bus1="10891.1.2.3" bus2="86771.1.2.3" linecode="70_3" length=0.03628 units=km
New "Line.SMT_2414" phases=3 bus1="85881.1.2.3" bus2="85871.1.2.3" linecode="3_3" length=0.04986 units=km
New "Line.SMT_2420" phases=3 bus1="25101.1.2.3" bus2="85981.1.2.3" linecode="3_3" length=0.07475 units=km
New "Line.SMT_2421" phases=3 bus1="85981.1.2.3" bus2="25121.1.2.3" linecode="3_3" length=0.08926 units=km
New "Line.SMT_2396" phases=3 bus1="1371.1.2.3" bus2="3051.1.2.3" linecode="63_3" length=0.05350 units=km
New "Line.SMT_2397" phases=3 bus1="1541.1.2.3" bus2="1551.1.2.3" linecode="63_3" length=0.03700 units=km
New "Line.SMT_2403" phases=3 bus1="72921.1.2.3" bus2="85791.1.2.3" linecode="56_3" length=0.02007 units=km
New "Line.SMT_2404" phases=3 bus1="85581.1.2.3" bus2="85591.1.2.3" linecode="114_3" length=0.03484 units=km
New "Line.SMT_2405" phases=3 bus1="85591.1.2.3" bus2="85791.1.2.3" linecode="56_3" length=0.00774 units=km
New "Line.SMT_2406" phases=3 bus1="85601.1.2.3" bus2="85791.1.2.3" linecode="56_3" length=0.02851 units=km
New "Line.SMT_2407" phases=3 bus1="85641.1.2.3" bus2="85581.1.2.3" linecode="114_3" length=0.04850 units=km
New "Line.SMT_2408" phases=3 bus1="85651.1.2.3" bus2="85641.1.2.3" linecode="114_3" length=0.04229 units=km
New "Line.SMT_2409" phases=3 bus1="85791.1.2.3" bus2="72911.1.2.3" linecode="56_3" length=0.01993 units=km
New "Line.SMT_2410" phases=3 bus1="25131.1.2.3" bus2="1CS42.1.2.3" linecode="3_3" length=0.08700 units=km
New "Line.SMT_2411" phases=3 bus1="25142.1.2.3" bus2="85881.1.2.3" linecode="3_3" length=0.08664 units=km
New "Line.SMT_2412" phases=3 bus1="85861.1.2.3" bus2="78091.1.2.3" linecode="3_3" length=0.04036 units=km
New "Line.SMT_2413" phases=3 bus1="85871.1.2.3" bus2="85861.1.2.3" linecode="3_3" length=0.04714 units=km
New "Line.SMT_2383" phases=3 bus1="85181.1.2.3" bus2="2CS524.1.2.3" linecode="63_3" length=0.03486 units=km
New "Line.SMT_2384" phases=3 bus1="85182.1.2.3" bus2="24251.1.2.3" linecode="63_3" length=0.02914 units=km
New "Line.SMT_2387" phases=3 bus1="30891.1.2.3" bus2="85241.1.2.3" linecode="63_3" length=0.04454 units=km
New "Line.SMT_2388" phases=3 bus1="85241.1.2.3" bus2="19241.1.2.3" linecode="63_3" length=0.03346 units=km
New "Line.SMT_2389" phases=3 bus1="1191.1.2.3" bus2="85311.1.2.3" linecode="63_3" length=0.03601 units=km
New "Line.SMT_2390" phases=3 bus1="1401.1.2.3" bus2="85321.1.2.3" linecode="63_3" length=0.03751 units=km
New "Line.SMT_2391" phases=3 bus1="85311.1.2.3" bus2="1411.1.2.3" linecode="63_3" length=0.08899 units=km
New "Line.SMT_2392" phases=3 bus1="85321.1.2.3" bus2="3111.1.2.3" linecode="63_3" length=0.04649 units=km
New "Line.SMT_2362" phases=3 bus1="84371.1.2.3" bus2="84361.1.2.3" linecode="114_3" length=0.03466 units=km
New "Line.SMT_2363" phases=3 bus1="84381.1.2.3" bus2="83181.1.2.3" linecode="114_3" length=0.03643 units=km
New "Line.SMT_2365" phases=3 bus1="84441.1.2.3" bus2="1CF150.1.2.3" linecode="122_3" length=0.01135 units=km
New "Line.SMT_2366" phases=3 bus1="79981.1.2.3" bus2="1CS117.1.2.3" linecode="113_3" length=0.04220 units=km
New "Line.SMT_2346" phases=3 bus1="84161.1.2.3" bus2="84151.1.2.3" linecode="56_3" length=0.03984 units=km
New "Line.SMT_2347" phases=3 bus1="84171.1.2.3" bus2="84161.1.2.3" linecode="56_3" length=0.03586 units=km
New "Line.SMT_2348" phases=3 bus1="84181.1.2.3" bus2="84171.1.2.3" linecode="56_3" length=0.04015 units=km
New "Line.SMT_2349" phases=3 bus1="84191.1.2.3" bus2="84212.1.2.3" linecode="56_3" length=0.02143 units=km
New "Line.SMT_2350" phases=3 bus1="84212.1.2.3" bus2="84181.1.2.3" linecode="56_3" length=0.01726 units=km
New "Line.SMT_2357" phases=3 bus1="83191.1.2.3" bus2="84381.1.2.3" linecode="114_3" length=0.00466 units=km
New "Line.SMT_2358" phases=3 bus1="83201.1.2.3" bus2="84381.1.2.3" linecode="114_3" length=0.00551 units=km
New "Line.SMT_2359" phases=3 bus1="84341.1.2.3" bus2="84381.1.2.3" linecode="114_3" length=0.02008 units=km
New "Line.SMT_2360" phases=3 bus1="84351.1.2.3" bus2="84341.1.2.3" linecode="114_3" length=0.04020 units=km
New "Line.SMT_2361" phases=3 bus1="84361.1.2.3" bus2="84351.1.2.3" linecode="114_3" length=0.03832 units=km
New "Line.SMT_2333" phases=3 bus1="25211.1.2.3" bus2="84212.1.2.3" linecode="63_3" length=0.02552 units=km
New "Line.SMT_2334" phases=3 bus1="26571.1.2.3" bus2="84071.1.2.3" linecode="56_3" length=0.03396 units=km
New "Line.SMT_2335" phases=3 bus1="29461.1.2.3" bus2="84212.1.2.3" linecode="63_3" length=0.01466 units=km
New "Line.SMT_2336" phases=3 bus1="84061.1.2.3" bus2="29061.1.2.3" linecode="56_3" length=0.03072 units=km
New "Line.SMT_2337" phases=3 bus1="84071.1.2.3" bus2="84061.1.2.3" linecode="56_3" length=0.03156 units=km
New "Line.SMT_2338" phases=3 bus1="84081.1.2.3" bus2="26571.1.2.3" linecode="56_3" length=0.03950 units=km
New "Line.SMT_2339" phases=3 bus1="84091.1.2.3" bus2="84081.1.2.3" linecode="56_3" length=0.04011 units=km
New "Line.SMT_2340" phases=3 bus1="84101.1.2.3" bus2="84091.1.2.3" linecode="56_3" length=0.03986 units=km
New "Line.SMT_2341" phases=3 bus1="84111.1.2.3" bus2="84101.1.2.3" linecode="56_3" length=0.03974 units=km
New "Line.SMT_2342" phases=3 bus1="84121.1.2.3" bus2="84111.1.2.3" linecode="56_3" length=0.04016 units=km
New "Line.SMT_2343" phases=3 bus1="84131.1.2.3" bus2="84121.1.2.3" linecode="56_3" length=0.03943 units=km
New "Line.SMT_2344" phases=3 bus1="84141.1.2.3" bus2="84131.1.2.3" linecode="56_3" length=0.03967 units=km
New "Line.SMT_2345" phases=3 bus1="84151.1.2.3" bus2="84141.1.2.3" linecode="56_3" length=0.04035 units=km
New "Line.SMT_2311" phases=3 bus1="83451.1.2.3" bus2="83431.1.2.3" linecode="91_3" length=0.03926 units=km
New "Line.SMT_2313" phases=3 bus1="83571.1.2.3" bus2="1CS1.1.2.3" linecode="113_3" length=0.04366 units=km
New "Line.SMT_2314" phases=3 bus1="83581.1.2.3" bus2="83571.1.2.3" linecode="113_3" length=0.03107 units=km
New "Line.SMT_2315" phases=3 bus1="83591.1.2.3" bus2="83581.1.2.3" linecode="113_3" length=0.04100 units=km
New "Line.SMT_2316" phases=3 bus1="83601.1.2.3" bus2="83591.1.2.3" linecode="113_3" length=0.03930 units=km
New "Line.SMT_2317" phases=3 bus1="83611.1.2.3" bus2="83601.1.2.3" linecode="113_3" length=0.04067 units=km
New "Line.SMT_2319" phases=1 bus1="83791.2" bus2="8791.2" linecode="88_1" length=0.08710 units=km
New "Line.SMT_2320" phases=1 bus1="83801.2" bus2="83791.2" linecode="88_1" length=0.04200 units=km
New "Line.SMT_2321" phases=1 bus1="83811.2" bus2="83801.2" linecode="88_1" length=0.04578 units=km
New "Line.SMT_2304" phases=3 bus1="21651.1.2.3" bus2="30462.1.2.3" linecode="91_3" length=0.03700 units=km
New "Line.SMT_2305" phases=3 bus1="30462.1.2.3" bus2="83451.1.2.3" linecode="91_3" length=0.04179 units=km
New "Line.SMT_2306" phases=3 bus1="83401.1.2.3" bus2="83081.1.2.3" linecode="3_3" length=0.04053 units=km
New "Line.SMT_2307" phases=3 bus1="83411.1.2.3" bus2="1CS146.1.2.3" linecode="3_3" length=0.04032 units=km
New "Line.SMT_2308" phases=3 bus1="83421.1.2.3" bus2="83411.1.2.3" linecode="3_3" length=0.03996 units=km
New "Line.SMT_2309" phases=3 bus1="83431.1.2.3" bus2="83421.1.2.3" linecode="3_3" length=0.04293 units=km
New "Line.SMT_2280" phases=3 bus1="83091.1.2.3" bus2="1CF147.1.2.3" linecode="114_3" length=0.03825 units=km
New "Line.SMT_2281" phases=3 bus1="83101.1.2.3" bus2="83091.1.2.3" linecode="114_3" length=0.04101 units=km
New "Line.SMT_2282" phases=3 bus1="83111.1.2.3" bus2="83101.1.2.3" linecode="114_3" length=0.04082 units=km
New "Line.SMT_2283" phases=3 bus1="83121.1.2.3" bus2="83111.1.2.3" linecode="114_3" length=0.04127 units=km
New "Line.SMT_2284" phases=3 bus1="83131.1.2.3" bus2="83121.1.2.3" linecode="114_3" length=0.04257 units=km
New "Line.SMT_2285" phases=3 bus1="83141.1.2.3" bus2="83131.1.2.3" linecode="114_3" length=0.03936 units=km
New "Line.SMT_2286" phases=3 bus1="83151.1.2.3" bus2="83141.1.2.3" linecode="114_3" length=0.04074 units=km
New "Line.SMT_2287" phases=3 bus1="83161.1.2.3" bus2="83151.1.2.3" linecode="114_3" length=0.04314 units=km
New "Line.SMT_2288" phases=3 bus1="83171.1.2.3" bus2="83161.1.2.3" linecode="114_3" length=0.03900 units=km
New "Line.SMT_2289" phases=3 bus1="83181.1.2.3" bus2="83171.1.2.3" linecode="114_3" length=0.04111 units=km
New "Line.SMT_2291" phases=3 bus1="21471.1.2.3" bus2="20491.1.2.3" linecode="56_3" length=0.04100 units=km
New "Line.SMT_2252" phases=3 bus1="82401.1.2.3" bus2="82441.1.2.3" linecode="114_3" length=0.03510 units=km
New "Line.SMT_2253" phases=3 bus1="82411.1.2.3" bus2="82401.1.2.3" linecode="114_3" length=0.02989 units=km
New "Line.SMT_2258" phases=3 bus1="9981.1.2.3" bus2="1CF30.1.2.3" linecode="63_3" length=0.04200 units=km
New "Line.SMT_2259" phases=3 bus1="79531.1.2.3" bus2="79521.1.2.3" linecode="56_3" length=0.04190 units=km
New "Line.SMT_2262" phases=3 bus1="82651.1.2.3" bus2="69961.1.2.3" linecode="56_3" length=0.04700 units=km
New "Line.SMT_2263" phases=3 bus1="82661.1.2.3" bus2="1CF146.1.2.3" linecode="56_3" length=0.01708 units=km
New "Line.SMT_2267" phases=3 bus1="83041.1.2.3" bus2="82881.1.2.3" linecode="63_3" length=0.02035 units=km
New "Line.SMT_2265" phases=3 bus1="82881.1.2.3" bus2="82891.1.2.3" linecode="63_3" length=0.03877 units=km
New "Line.SMT_2268" phases=3 bus1="82861.1.2.3" bus2="83041.1.2.3" linecode="114_3" length=0.02087 units=km
New "Line.SMT_2269" phases=3 bus1="82911.1.2.3" bus2="83041.1.2.3" linecode="114_3" length=0.02237 units=km
New "Line.SMT_2270" phases=3 bus1="82921.1.2.3" bus2="82911.1.2.3" linecode="114_3" length=0.04121 units=km
New "Line.SMT_2271" phases=3 bus1="82931.1.2.3" bus2="82921.1.2.3" linecode="114_3" length=0.03869 units=km
New "Line.SMT_2272" phases=3 bus1="82901.1.2.3" bus2="68111.1.2.3" linecode="63_3" length=0.03178 units=km
New "Line.SMT_2229" phases=3 bus1="25991.1.2.3" bus2="82251.1.2.3" linecode="63_3" length=0.03909 units=km
New "Line.SMT_2228" phases=1 bus1="8791.2" bus2="82291.2" linecode="88_1" length=0.07412 units=km
New "Line.SMT_2240" phases=3 bus1="27361.1.2.3" bus2="RT27361.1.2.3" linecode="3_3" length=0.06003 units=km
New "Line.SMT_2238" phases=3 bus1="18842.1.2.3" bus2="2CF530.1.2.3" linecode="67_3" length=0.03934 units=km
New "Line.SMT_2241" phases=3 bus1="82601.1.2.3" bus2="27351.1.2.3" linecode="3_3" length=0.00600 units=km
New "Line.SMT_2243" phases=3 bus1="82461.1.2.3" bus2="1CF138.1.2.3" linecode="114_3" length=0.03855 units=km
New "Line.SMT_2244" phases=3 bus1="82471.1.2.3" bus2="82461.1.2.3" linecode="114_3" length=0.03848 units=km
New "Line.SMT_2245" phases=3 bus1="82481.1.2.3" bus2="82471.1.2.3" linecode="114_3" length=0.03839 units=km
New "Line.SMT_2246" phases=3 bus1="82491.1.2.3" bus2="82481.1.2.3" linecode="114_3" length=0.03827 units=km
New "Line.SMT_2247" phases=3 bus1="82501.1.2.3" bus2="82491.1.2.3" linecode="114_3" length=0.03828 units=km
New "Line.SMT_2248" phases=3 bus1="82431.1.2.3" bus2="82501.1.2.3" linecode="114_3" length=0.03897 units=km
New "Line.SMT_2249" phases=3 bus1="82391.1.2.3" bus2="82431.1.2.3" linecode="114_3" length=0.03818 units=km
New "Line.SMT_2250" phases=3 bus1="82451.1.2.3" bus2="82391.1.2.3" linecode="114_3" length=0.03488 units=km
New "Line.SMT_2251" phases=3 bus1="82441.1.2.3" bus2="82451.1.2.3" linecode="114_3" length=0.02995 units=km
New "Line.SMT_2210" phases=3 bus1="82001.1.2.3" bus2="81991.1.2.3" linecode="113_3" length=0.04091 units=km
New "Line.SMT_2211" phases=3 bus1="82011.1.2.3" bus2="82001.1.2.3" linecode="113_3" length=0.04043 units=km
New "Line.SMT_2212" phases=3 bus1="82021.1.2.3" bus2="82011.1.2.3" linecode="113_3" length=0.04112 units=km
New "Line.SMT_2213" phases=3 bus1="81861.1.2.3" bus2="82021.1.2.3" linecode="113_3" length=0.04153 units=km
New "Line.SMT_2214" phases=3 bus1="81871.1.2.3" bus2="81861.1.2.3" linecode="113_3" length=0.03764 units=km
New "Line.SMT_2215" phases=3 bus1="81901.1.2.3" bus2="81871.1.2.3" linecode="113_3" length=0.03317 units=km
New "Line.SMT_2216" phases=3 bus1="81911.1.2.3" bus2="81901.1.2.3" linecode="113_3" length=0.04390 units=km
New "Line.SMT_2217" phases=3 bus1="81881.1.2.3" bus2="81911.1.2.3" linecode="113_3" length=0.04115 units=km
New "Line.SMT_2218" phases=3 bus1="81891.1.2.3" bus2="81881.1.2.3" linecode="113_3" length=0.03950 units=km
New "Line.SMT_2219" phases=3 bus1="81921.1.2.3" bus2="81891.1.2.3" linecode="113_3" length=0.03284 units=km
New "Line.SMT_2220" phases=3 bus1="81931.1.2.3" bus2="81921.1.2.3" linecode="113_3" length=0.03250 units=km
New "Line.SMT_2221" phases=3 bus1="81941.1.2.3" bus2="81931.1.2.3" linecode="113_3" length=0.03017 units=km
New "Line.SMT_2222" phases=3 bus1="81951.1.2.3" bus2="1CF137.1.2.3" linecode="56_3" length=0.01820 units=km
New "Line.SMT_2223" phases=3 bus1="81961.1.2.3" bus2="81951.1.2.3" linecode="56_3" length=0.08629 units=km
New "Line.SMT_2224" phases=3 bus1="82031.1.2.3" bus2="81961.1.2.3" linecode="56_3" length=0.03325 units=km
New "Line.SMT_2225" phases=3 bus1="82241.1.2.3" bus2="82031.1.2.3" linecode="56_3" length=0.03236 units=km
New "Line.SMT_2226" phases=3 bus1="82281.1.2.3" bus2="82271.1.2.3" linecode="56_3" length=0.04027 units=km
New "Line.SMT_2192" phases=3 bus1="9971.1.2.3" bus2="1CS41.1.2.3" linecode="70_3" length=0.01184 units=km
New "Line.SMT_2193" phases=3 bus1="22251.1.2.3" bus2="22241.1.2.3" linecode="56_3" length=0.04213 units=km
New "Line.SMT_2194" phases=3 bus1="22261.1.2.3" bus2="22251.1.2.3" linecode="56_3" length=0.03697 units=km
New "Line.SMT_2195" phases=3 bus1="22271.1.2.3" bus2="22261.1.2.3" linecode="56_3" length=0.05013 units=km
New "Line.SMT_2209" phases=3 bus1="81991.1.2.3" bus2="1CF36.1.2.3" linecode="113_3" length=0.03888 units=km
New "Line.SMT_2171" phases=3 bus1="7451.1.2.3" bus2="81091.1.2.3" linecode="70_3" length=0.02114 units=km
New "Line.SMT_2172" phases=3 bus1="80901.1.2.3" bus2="81091.1.2.3" linecode="70_3" length=0.01392 units=km
New "Line.SMT_2173" phases=3 bus1="81091.1.2.3" bus2="1CS70.1.2.3" linecode="70_3" length=0.02608 units=km
New "Line.SMT_2155" phases=3 bus1="80731.1.2.3" bus2="80721.1.2.3" linecode="113_3" length=0.04200 units=km
New "Line.SMT_2156" phases=3 bus1="80741.1.2.3" bus2="80731.1.2.3" linecode="113_3" length=0.03800 units=km
New "Line.SMT_2154" phases=3 bus1="80721.1.2.3" bus2="79991.1.2.3" linecode="113_3" length=0.03250 units=km
New "Line.SMT_2157" phases=3 bus1="80751.1.2.3" bus2="80741.1.2.3" linecode="113_3" length=0.04100 units=km
New "Line.SMT_2158" phases=3 bus1="80781.1.2.3" bus2="80751.1.2.3" linecode="113_3" length=0.03900 units=km
New "Line.SMT_2160" phases=3 bus1="80791.1.2.3" bus2="80781.1.2.3" linecode="113_3" length=0.03750 units=km
New "Line.SMT_2161" phases=3 bus1="80801.1.2.3" bus2="80791.1.2.3" linecode="113_3" length=0.04100 units=km
New "Line.SMT_2162" phases=3 bus1="80811.1.2.3" bus2="80801.1.2.3" linecode="113_3" length=0.03850 units=km
New "Line.SMT_2163" phases=3 bus1="80821.1.2.3" bus2="80811.1.2.3" linecode="113_3" length=0.04400 units=km
New "Line.SMT_2164" phases=3 bus1="80831.1.2.3" bus2="80821.1.2.3" linecode="113_3" length=0.04350 units=km
New "Line.SMT_2165" phases=3 bus1="80841.1.2.3" bus2="80831.1.2.3" linecode="113_3" length=0.04050 units=km
New "Line.SMT_2166" phases=3 bus1="80851.1.2.3" bus2="80841.1.2.3" linecode="113_3" length=0.04150 units=km
New "Line.SMT_2167" phases=3 bus1="80861.1.2.3" bus2="80851.1.2.3" linecode="113_3" length=0.04100 units=km
New "Line.SMT_2168" phases=3 bus1="80871.1.2.3" bus2="80861.1.2.3" linecode="113_3" length=0.04300 units=km
New "Line.SMT_2169" phases=3 bus1="80881.1.2.3" bus2="80871.1.2.3" linecode="113_3" length=0.04300 units=km
New "Line.SMT_2170" phases=3 bus1="80892.1.2.3" bus2="80881.1.2.3" linecode="113_3" length=0.04300 units=km
New "Line.SMT_2136" phases=3 bus1="30421.1.2.3" bus2="30411.1.2.3" linecode="114_3" length=0.04850 units=km
New "Line.SMT_2137" phases=3 bus1="30431.1.2.3" bus2="30421.1.2.3" linecode="114_3" length=0.03100 units=km
New "Line.SMT_2139" phases=3 bus1="80181.1.2.3" bus2="80191.1.2.3" linecode="114_3" length=0.04150 units=km
New "Line.SMT_2140" phases=3 bus1="80171.1.2.3" bus2="80181.1.2.3" linecode="114_3" length=0.04450 units=km
New "Line.SMT_2148" phases=3 bus1="80911.1.2.3" bus2="2CF529.1.2.3" linecode="56_3" length=0.04450 units=km
New "Line.SMT_2149" phases=3 bus1="80921.1.2.3" bus2="80911.1.2.3" linecode="56_3" length=0.04900 units=km
New "Line.SMT_2147" phases=3 bus1="25201.1.2.3" bus2="80931.1.2.3" linecode="56_3" length=0.01803 units=km
New "Line.SMT_2150" phases=3 bus1="72801.1.2.3" bus2="15821.1.2.3" linecode="114_3" length=0.04150 units=km
New "Line.SMT_2151" phases=3 bus1="72811.1.2.3" bus2="72801.1.2.3" linecode="114_3" length=0.04150 units=km
New "Line.SMT_2152" phases=3 bus1="81021.1.2.3" bus2="72811.1.2.3" linecode="114_3" length=0.03600 units=km
New "Line.SMT_2153" phases=3 bus1="80981.1.2.3" bus2="81021.1.2.3" linecode="114_3" length=0.03750 units=km
New "Line.SMT_2118" phases=3 bus1="79501.1.2.3" bus2="79491.1.2.3" linecode="56_3" length=0.03460 units=km
New "Line.SMT_2119" phases=3 bus1="79511.1.2.3" bus2="79501.1.2.3" linecode="56_3" length=0.04560 units=km
New "Line.SMT_2120" phases=3 bus1="79521.1.2.3" bus2="79511.1.2.3" linecode="56_3" length=0.03490 units=km
New "Line.SMT_2123" phases=3 bus1="79971.1.2.3" bus2="79981.1.2.3" linecode="113_3" length=0.04203 units=km
New "Line.SMT_2125" phases=3 bus1="79941.1.2.3" bus2="79951.1.2.3" linecode="113_3" length=0.04000 units=km
New "Line.SMT_2124" phases=3 bus1="79951.1.2.3" bus2="79971.1.2.3" linecode="113_3" length=0.03980 units=km
New "Line.SMT_2126" phases=3 bus1="79931.1.2.3" bus2="79941.1.2.3" linecode="113_3" length=0.04180 units=km
New "Line.SMT_2127" phases=3 bus1="79921.1.2.3" bus2="79931.1.2.3" linecode="113_3" length=0.04000 units=km
New "Line.SMT_2128" phases=3 bus1="79911.1.2.3" bus2="79921.1.2.3" linecode="113_3" length=0.04000 units=km
New "Line.SMT_2129" phases=3 bus1="79901.1.2.3" bus2="79911.1.2.3" linecode="113_3" length=0.04000 units=km
New "Line.SMT_2130" phases=3 bus1="79961.1.2.3" bus2="79901.1.2.3" linecode="113_3" length=0.04280 units=km
New "Line.SMT_2131" phases=3 bus1="79891.1.2.3" bus2="79961.1.2.3" linecode="113_3" length=0.03900 units=km
New "Line.SMT_2132" phases=3 bus1="79881.1.2.3" bus2="79891.1.2.3" linecode="113_3" length=0.04000 units=km
New "Line.SMT_2133" phases=3 bus1="79871.1.2.3" bus2="79881.1.2.3" linecode="113_3" length=0.04000 units=km
New "Line.SMT_2134" phases=3 bus1="79861.1.2.3" bus2="79871.1.2.3" linecode="113_3" length=0.04000 units=km
New "Line.SMT_2135" phases=3 bus1="79991.1.2.3" bus2="79861.1.2.3" linecode="113_3" length=0.03670 units=km
New "Line.SMT_2138" phases=3 bus1="80191.1.2.3" bus2="30431.1.2.3" linecode="114_3" length=0.03350 units=km
New "Line.SMT_2100" phases=3 bus1="78301.1.2.3" bus2="69821.1.2.3" linecode="56_3" length=0.03500 units=km
New "Line.SMT_2101" phases=3 bus1="78291.1.2.3" bus2="78301.1.2.3" linecode="56_3" length=0.03760 units=km
New "Line.SMT_2103" phases=3 bus1="78271.1.2.3" bus2="78281.1.2.3" linecode="56_3" length=0.03530 units=km
New "Line.SMT_2104" phases=3 bus1="78261.1.2.3" bus2="78271.1.2.3" linecode="56_3" length=0.03760 units=km
New "Line.SMT_2105" phases=3 bus1="78251.1.2.3" bus2="78261.1.2.3" linecode="56_3" length=0.03700 units=km
New "Line.SMT_2106" phases=3 bus1="78241.1.2.3" bus2="78251.1.2.3" linecode="56_3" length=0.03950 units=km
New "Line.SMT_2107" phases=3 bus1="78231.1.2.3" bus2="78241.1.2.3" linecode="56_3" length=0.03770 units=km
New "Line.SMT_2108" phases=3 bus1="78571.1.2.3" bus2="1CF129.1.2.3" linecode="56_3" length=0.02900 units=km
New "Line.SMT_2109" phases=3 bus1="78572.1.2.3" bus2="21611.1.2.3" linecode="67_3" length=0.04430 units=km
New "Line.SMT_2111" phases=3 bus1="79431.1.2.3" bus2="79421.1.2.3" linecode="56_3" length=0.04200 units=km
New "Line.SMT_2112" phases=3 bus1="79441.1.2.3" bus2="79431.1.2.3" linecode="56_3" length=0.04200 units=km
New "Line.SMT_2113" phases=3 bus1="79451.1.2.3" bus2="79441.1.2.3" linecode="56_3" length=0.04180 units=km
...
