output/2_TAP2_1/Trecho_BT_2_TAP2_1.dss
New "Line.SBT_5473" phases=3 bus1="BT86931.1.2.3.4" bus2="BT86961.1.2.3.4" linecode="101_4" length=0.01350 units=km
New "Line.SBT_5474" phases=3 bus1="BT86941.1.2.3.4" bus2="BT86961.1.2.3.4" linecode="101_4" length=0.02150 units=km
New "Line.SBT_5475" phases=3 bus1="BT86951.1.2.3.4" bus2="BT86941.1.2.3.4" linecode="101_4" length=0.02800 units=km
New "Line.SBT_5476" phases=3 bus1="BT86961.1.2.3.4" bus2="ET1_192.1.2.3.4" linecode="101_4" length=0.03257 units=km
New "Line.SBT_5453" phases=3 bus1="BT24151.1.2.3.4" bus2="BT34632.1.2.3.4" linecode="101_4" length=0.02163 units=km
New "Line.SBT_5454" phases=3 bus1="BT24162.1.2.3.4" bus2="BT34632.1.2.3.4" linecode="101_4" length=0.02324 units=km
New "Line.SBT_5455" phases=3 bus1="BT24171.1.2.3.4" bus2="BT24181.1.2.3.4" linecode="101_4" length=0.03900 units=km
New "Line.SBT_5456" phases=3 bus1="BT24172.1.2.3.4" bus2="BT24162.1.2.3.4" linecode="101_4" length=0.04000 units=km
New "Line.SBT_5457" phases=3 bus1="BT24181.1.2.3.4" bus2="BT32561.1.2.3.4" linecode="101_4" length=0.02200 units=km
New "Line.SBT_5458" phases=3 bus1="BT24191.1.2.3.4" bus2="BT32561.1.2.3.4" linecode="101_4" length=0.02299 units=km
New "Line.SBT_5459" phases=3 bus1="BT24331.1.2.3.4" bus2="BT24321.1.2.3.4" linecode="44_4" length=0.04200 units=km
New "Line.SBT_5460" phases=3 bus1="BT24332.1.2.3.4" bus2="BT34632.1.2.3.4" linecode="44_4" length=0.01943 units=km
New "Line.SBT_5461" phases=3 bus1="BT30021.1.2.3.4" bus2="BT32771.1.2.3.4" linecode="74_4" length=0.02929 units=km
New "Line.SBT_5462" phases=3 bus1="BT30042.1.2.3.4" bus2="BT30021.1.2.3.4" linecode="101_4" length=0.04300 units=km
New "Line.SBT_5463" phases=3 bus1="BT30911.1.2.3.4" bus2="BT30042.1.2.3.4" linecode="44_4" length=0.04000 units=km
New "Line.SBT_5464" phases=3 bus1="BT34632.1.2.3.4" bus2="BT30911.1.2.3.4" linecode="44_4" length=0.02957 units=km
New "Line.SBT_5468" phases=3 bus1="BT27121.1.2.3.4" bus2="BT86921.1.2.3.4" linecode="85_4" length=0.04081 units=km
New "Line.SBT_5469" phases=3 bus1="BT86921.1.2.3.4" bus2="ET1_110.1.2.3.4" linecode="85_4" length=0.04219 units=km
New "Line.SBT_5472" phases=3 bus1="BT80981.1.2.3.4" bus2="BT86961.1.2.3.4" linecode="101_4" length=0.00446 units=km
New "Line.SBT_5434" phases=3 bus1="BT6601.1.2.3.4" bus2="BT77431.1.2.3.4" linecode="101_4" length=0.04100 units=km
New "Line.SBT_5435" phases=3 bus1="BT6632.1.2.3.4" bus2="BT71601.1.2.3.4" linecode="101_4" length=0.00900 units=km
New "Line.SBT_5436" phases=3 bus1="BT71541.1.2.3.4" bus2="BT71601.1.2.3.4" linecode="101_4" length=0.01300 units=km
New "Line.SBT_5437" phases=3 bus1="BT77421.1.2.3.4" bus2="BT6632.1.2.3.4" linecode="101_4" length=0.03800 units=km
New "Line.SBT_5438" phases=3 bus1="BT77431.1.2.3.4" bus2="BT77421.1.2.3.4" linecode="101_4" length=0.04100 units=km
New "Line.SBT_5439" phases=3 bus1="BT86871.1.2.3.4" bus2="BT9691.1.2.3.4" linecode="85_4" length=0.03265 units=km
New "Line.SBT_5440" phases=3 bus1="BT86881.1.2.3.4" bus2="BT86871.1.2.3.4" linecode="85_4" length=0.03855 units=km
New "Line.SBT_5441" phases=3 bus1="BT86891.1.2.3.4" bus2="BT86881.1.2.3.4" linecode="85_4" length=0.02519 units=km
New "Line.SBT_5451" phases=3 bus1="BT24141.1.2.3.4" bus2="BT26481.1.2.3.4" linecode="44_4" length=0.03700 units=km
New "Line.SBT_5452" phases=3 bus1="BT24142.1.2.3.4" bus2="BT24151.1.2.3.4" linecode="101_4" length=0.04514 units=km
New "Line.SBT_5424" phases=3 bus1="BT4511.1.2.3.4" bus2="BT33841.1.2.3.4" linecode="44_4" length=0.02369 units=km
New "Line.SBT_5425" phases=3 bus1="BT8921.1.2.3.4" bus2="BT13261.1.2.3.4" linecode="44_4" length=0.04600 units=km
New "Line.SBT_5426" phases=3 bus1="BT8922.1.2.3.4" bus2="BT4511.1.2.3.4" linecode="101_4" length=0.03650 units=km
New "Line.SBT_5433" phases=3 bus1="BT6591.1.2.3.4" bus2="BT6601.1.2.3.4" linecode="101_4" length=0.04200 units=km
New "Line.SBT_5395" phases=3 bus1="BT86631.1.2.3.4" bus2="BT86731.1.2.3.4" linecode="101_4" length=0.02822 units=km
New "Line.SBT_5396" phases=3 bus1="BT86641.1.2.3.4" bus2="BT86631.1.2.3.4" linecode="101_4" length=0.02586 units=km
New "Line.SBT_5397" phases=3 bus1="BT86651.1.2.3.4" bus2="BT86741.1.2.3.4" linecode="101_4" length=0.01835 units=km
New "Line.SBT_5398" phases=3 bus1="BT86661.1.2.3.4" bus2="BT86741.1.2.3.4" linecode="101_4" length=0.01642 units=km
New "Line.SBT_5399" phases=3 bus1="BT86671.1.2.3.4" bus2="BT86661.1.2.3.4" linecode="101_4" length=0.03499 units=km
New "Line.SBT_5400" phases=3 bus1="BT86681.1.2.3.4" bus2="BT86671.1.2.3.4" linecode="101_4" length=0.03691 units=km
New "Line.SBT_5401" phases=3 bus1="BT86711.1.2.3.4" bus2="ET1_216.1.2.3.4" linecode="101_4" length=0.01870 units=km
New "Line.SBT_5402" phases=3 bus1="BT86721.1.2.3.4" bus2="BT86521.1.2.3.4" linecode="101_4" length=0.03789 units=km
New "Line.SBT_5403" phases=3 bus1="BT86731.1.2.3.4" bus2="BT86571.1.2.3.4" linecode="101_4" length=0.00440 units=km
New "Line.SBT_5404" phases=3 bus1="BT86741.1.2.3.4" bus2="BT86641.1.2.3.4" linecode="101_4" length=0.01410 units=km
New "Line.SBT_5405" phases=3 bus1="BT78841.1.2.3.4" bus2="BT86691.1.2.3.4" linecode="101_4" length=0.03632 units=km
New "Line.SBT_5406" phases=3 bus1="BT86502.1.2.3.4" bus2="BT78841.1.2.3.4" linecode="101_4" length=0.00678 units=km
New "Line.SBT_5407" phases=3 bus1="BT86691.1.2.3.4" bus2="BT78831.1.2.3.4" linecode="101_4" length=0.03130 units=km
New "Line.SBT_5408" phases=3 bus1="BT10931.1.2.3.4" bus2="BT86771.1.2.3.4" linecode="44_4" length=0.04862 units=km
New "Line.SBT_5409" phases=3 bus1="BT86751.1.2.3.4" bus2="BT76081.1.2.3.4" linecode="101_4" length=0.02950 units=km
New "Line.SBT_5410" phases=3 bus1="BT86771.1.2.3.4" bus2="BT10891.1.2.3.4" linecode="44_4" length=0.03628 units=km
New "Line.SBT_5376" phases=1 bus1="BT27371.3.4" bus2="BT86491.3.4" linecode="92_2" length=0.04491 units=km
New "Line.SBT_5377" phases=3 bus1="BT27391.1.2.3.4" bus2="ET1_170.1.2.3.4" linecode="101_4" length=0.03950 units=km
New "Line.SBT_5378" phases=3 bus1="BT86491.1.2.3.4" bus2="BT27391.1.2.3.4" linecode="101_4" length=0.03209 units=km
New "Line.SBT_5379" phases=3 bus1="BT69652.1.2.3.4" bus2="BT86741.1.2.3.4" linecode="101_4" length=0.02358 units=km
New "Line.SBT_5380" phases=3 bus1="BT78552.1.2.3.4" bus2="BT86721.1.2.3.4" linecode="101_4" length=0.03194 units=km
New "Line.SBT_5381" phases=3 bus1="BT78562.1.2.3.4" bus2="BT86611.1.2.3.4" linecode="101_4" length=0.04152 units=km
New "Line.SBT_5382" phases=3 bus1="BT86501.1.2.3.4" bus2="BT86511.1.2.3.4" linecode="101_4" length=0.04450 units=km
New "Line.SBT_5383" phases=3 bus1="BT86511.1.2.3.4" bus2="BT86711.1.2.3.4" linecode="101_4" length=0.01358 units=km
New "Line.SBT_5384" phases=3 bus1="BT86521.1.2.3.4" bus2="BT86711.1.2.3.4" linecode="101_4" length=0.02688 units=km
New "Line.SBT_5385" phases=3 bus1="BT86531.1.2.3.4" bus2="BT86711.1.2.3.4" linecode="101_4" length=0.01536 units=km
New "Line.SBT_5387" phases=3 bus1="BT86551.1.2.3.4" bus2="BT86531.1.2.3.4" linecode="101_4" length=0.04077 units=km
New "Line.SBT_5388" phases=3 bus1="BT86561.1.2.3.4" bus2="BT86731.1.2.3.4" linecode="101_4" length=0.03236 units=km
New "Line.SBT_5389" phases=3 bus1="BT86571.1.2.3.4" bus2="ET1_216.1.2.3.4" linecode="101_4" length=0.02701 units=km
New "Line.SBT_5390" phases=3 bus1="BT86581.1.2.3.4" bus2="BT86731.1.2.3.4" linecode="101_4" length=0.00717 units=km
New "Line.SBT_5391" phases=3 bus1="BT86591.1.2.3.4" bus2="BT86581.1.2.3.4" linecode="101_4" length=0.03243 units=km
New "Line.SBT_5392" phases=3 bus1="BT86601.1.2.3.4" bus2="BT86591.1.2.3.4" linecode="101_4" length=0.03782 units=km
New "Line.SBT_5393" phases=3 bus1="BT86611.1.2.3.4" bus2="BT86601.1.2.3.4" linecode="101_4" length=0.03609 units=km
New "Line.SBT_5394" phases=3 bus1="BT86621.1.2.3.4" bus2="BT86611.1.2.3.4" linecode="101_4" length=0.03947 units=km
New "Line.SBT_5363" phases=3 bus1="BT77142.1.2.3.4" bus2="BT17841.1.2.3.4" linecode="101_4" length=0.00656 units=km
New "Line.SBT_5364" phases=3 bus1="BT17841.1.2.3.4" bus2="ET1_94.1.2.3.4" linecode="101_4" length=0.04382 units=km
New "Line.SBT_5365" phases=3 bus1="BT82791.1.2.3.4" bus2="ET1_94.1.2.3.4" linecode="85_4" length=0.01177 units=km
New "Line.SBT_5370" phases=3 bus1="BT80622.1.2.3.4" bus2="BT86461.1.2.3.4" linecode="101_4" length=0.05884 units=km
New "Line.SBT_5371" phases=3 bus1="BT80631.1.2.3.4" bus2="BT80622.1.2.3.4" linecode="101_4" length=0.04200 units=km
New "Line.SBT_5372" phases=3 bus1="BT86451.1.2.3.4" bus2="ET1_56.1.2.3.4" linecode="101_4" length=0.01282 units=km
New "Line.SBT_5373" phases=3 bus1="BT86461.1.2.3.4" bus2="BT86451.1.2.3.4" linecode="101_4" length=0.04500 units=km
New "Line.SBT_5374" phases=3 bus1="BT86471.1.2.3.4" bus2="BT65111.1.2.3.4" linecode="101_4" length=0.02950 units=km
New "Line.SBT_5375" phases=3 bus1="BT86481.1.2.3.4" bus2="BT86471.1.2.3.4" linecode="101_4" length=0.02650 units=km
New "Line.SBT_5336" phases=3 bus1="BT20422.1.2.3.4" bus2="BT85721.1.2.3.4" linecode="101_4" length=0.04619 units=km
New "Line.SBT_5337" phases=3 bus1="BT77291.1.2.3.4" bus2="BT77302.1.2.3.4" linecode="101_4" length=0.04150 units=km
New "Line.SBT_5338" phases=3 bus1="BT77302.1.2.3.4" bus2="BT85831.1.2.3.4" linecode="101_4" length=0.01024 units=km
New "Line.SBT_5339" phases=3 bus1="BT85721.1.2.3.4" bus2="BT85831.1.2.3.4" linecode="101_4" length=0.03312 units=km
New "Line.SBT_5334" phases=3 bus1="BT29661.1.2.3.4" bus2="ET1_92.1.2.3.4" linecode="85_4" length=0.08922 units=km
New "Line.SBT_5335" phases=3 bus1="BT20382.1.2.3.4" bus2="BT77291.1.2.3.4" linecode="101_4" length=0.04400 units=km
New "Line.SBT_5297" phases=3 bus1="BT85871.1.2.3.4" bus2="BT85861.1.2.3.4" linecode="101_4" length=0.04814 units=km
New "Line.SBT_5298" phases=3 bus1="BT85881.1.2.3.4" bus2="BT85871.1.2.3.4" linecode="101_4" length=0.04984 units=km
New "Line.SBT_5301" phases=3 bus1="BT25701.1.2.3.4" bus2="BT85901.1.2.3.4" linecode="74_4" length=0.03482 units=km
New "Line.SBT_5302" phases=3 bus1="BT85901.1.2.3.4" bus2="BT30781.1.2.3.4" linecode="74_4" length=0.04018 units=km
New "Line.SBT_5310" phases=3 bus1="BT66471.1.2.3.4" bus2="BT85951.1.2.3.4" linecode="44_4" length=0.02085 units=km
New "Line.SBT_5311" phases=3 bus1="BT85921.1.2.3.4" bus2="BT12411.1.2.3.4" linecode="85_4" length=0.01394 units=km
New "Line.SBT_5312" phases=3 bus1="BT85931.1.2.3.4" bus2="BT85921.1.2.3.4" linecode="85_4" length=0.03085 units=km
New "Line.SBT_5313" phases=3 bus1="BT85941.1.2.3.4" bus2="BT85952.1.2.3.4" linecode="85_4" length=0.01362 units=km
New "Line.SBT_5314" phases=3 bus1="BT85951.1.2.3.4" bus2="BT66461.1.2.3.4" linecode="44_4" length=0.02134 units=km
New "Line.SBT_5315" phases=3 bus1="BT85952.1.2.3.4" bus2="BT85931.1.2.3.4" linecode="85_4" length=0.02744 units=km
New "Line.SBT_5277" phases=3 bus1="BT85621.1.2.3.4" bus2="BT85611.1.2.3.4" linecode="101_4" length=0.02991 units=km
New "Line.SBT_5278" phases=3 bus1="BT85631.1.2.3.4" bus2="BT85621.1.2.3.4" linecode="101_4" length=0.03904 units=km
New "Line.SBT_5280" phases=3 bus1="BT85651.1.2.3.4" bus2="ET2_538.1.2.3.4" linecode="101_4" length=0.04229 units=km
New "Line.SBT_5281" phases=3 bus1="BT85661.1.2.3.4" bus2="BT85651.1.2.3.4" linecode="101_4" length=0.04102 units=km
New "Line.SBT_5282" phases=3 bus1="BT85671.1.2.3.4" bus2="BT85831.1.2.3.4" linecode="101_4" length=0.00853 units=km
New "Line.SBT_5283" phases=3 bus1="BT85672.1.2.3.4" bus2="BT85681.1.2.3.4" linecode="101_4" length=0.02981 units=km
New "Line.SBT_5284" phases=3 bus1="BT85681.1.2.3.4" bus2="BT85691.1.2.3.4" linecode="101_4" length=0.02999 units=km
New "Line.SBT_5285" phases=3 bus1="BT85691.1.2.3.4" bus2="BT85701.1.2.3.4" linecode="101_4" length=0.03591 units=km
New "Line.SBT_5286" phases=3 bus1="BT85701.1.2.3.4" bus2="BT85821.1.2.3.4" linecode="101_4" length=0.02116 units=km
New "Line.SBT_5287" phases=3 bus1="BT85711.1.2.3.4" bus2="BT85821.1.2.3.4" linecode="101_4" length=0.00773 units=km
New "Line.SBT_5289" phases=3 bus1="BT85801.1.2.3.4" bus2="ET2_538.1.2.3.4" linecode="101_4" length=0.03093 units=km
New "Line.SBT_5290" phases=3 bus1="BT85811.1.2.3.4" bus2="BT85541.1.2.3.4" linecode="101_4" length=0.02002 units=km
New "Line.SBT_5291" phases=3 bus1="BT85821.1.2.3.4" bus2="BT85481.1.2.3.4" linecode="101_4" length=0.03192 units=km
New "Line.SBT_5292" phases=3 bus1="BT85831.1.2.3.4" bus2="BT85661.1.2.3.4" linecode="101_4" length=0.02111 units=km
New "Line.SBT_5293" phases=3 bus1="BT85841.1.2.3.4" bus2="BT72921.1.2.3.4" linecode="44_4" length=0.02036 units=km
New "Line.SBT_5294" phases=3 bus1="BT72911.1.2.3.4" bus2="BT85841.1.2.3.4" linecode="44_4" length=0.02004 units=km
New "Line.SBT_5295" phases=3 bus1="BT442.1.2.3.4" bus2="BT85871.1.2.3.4" linecode="86_4" length=0.02060 units=km
New "Line.SBT_5296" phases=3 bus1="BT85861.1.2.3.4" bus2="ET1_185.1.2.3.4" linecode="101_4" length=0.04086 units=km
New "Line.SBT_5261" phases=3 bus1="BT85471.1.2.3.4" bus2="BT85821.1.2.3.4" linecode="101_4" length=0.00860 units=km
New "Line.SBT_5262" phases=3 bus1="BT85481.1.2.3.4" bus2="BT85491.1.2.3.4" linecode="101_4" length=0.03778 units=km
New "Line.SBT_5263" phases=3 bus1="BT85491.1.2.3.4" bus2="BT85501.1.2.3.4" linecode="101_4" length=0.03503 units=km
New "Line.SBT_5264" phases=3 bus1="BT85501.1.2.3.4" bus2="BT85811.1.2.3.4" linecode="101_4" length=0.03113 units=km
New "Line.SBT_5265" phases=3 bus1="BT85511.1.2.3.4" bus2="BT85521.1.2.3.4" linecode="101_4" length=0.04082 units=km
New "Line.SBT_5266" phases=3 bus1="BT85521.1.2.3.4" bus2="BT85811.1.2.3.4" linecode="101_4" length=0.02132 units=km
New "Line.SBT_5267" phases=3 bus1="BT85531.1.2.3.4" bus2="BT85811.1.2.3.4" linecode="101_4" length=0.00865 units=km
New "Line.SBT_5268" phases=3 bus1="BT85541.1.2.3.4" bus2="BT85551.1.2.3.4" linecode="101_4" length=0.03512 units=km
New "Line.SBT_5269" phases=3 bus1="BT85551.1.2.3.4" bus2="BT85561.1.2.3.4" linecode="101_4" length=0.02604 units=km
New "Line.SBT_5270" phases=3 bus1="BT85561.1.2.3.4" bus2="BT85571.1.2.3.4" linecode="101_4" length=0.03487 units=km
New "Line.SBT_5271" phases=3 bus1="BT85571.1.2.3.4" bus2="BT85801.1.2.3.4" linecode="101_4" length=0.00848 units=km
New "Line.SBT_5272" phases=3 bus1="BT85581.1.2.3.4" bus2="BT85801.1.2.3.4" linecode="101_4" length=0.01814 units=km
New "Line.SBT_5273" phases=3 bus1="BT85591.1.2.3.4" bus2="BT85581.1.2.3.4" linecode="101_4" length=0.03484 units=km
New "Line.SBT_5274" phases=3 bus1="BT85592.1.2.3.4" bus2="BT85841.1.2.3.4" linecode="101_4" length=0.01147 units=km
New "Line.SBT_5275" phases=3 bus1="BT85601.1.2.3.4" bus2="BT85841.1.2.3.4" linecode="101_4" length=0.02667 units=km
New "Line.SBT_5276" phases=3 bus1="BT85611.1.2.3.4" bus2="BT85801.1.2.3.4" linecode="101_4" length=0.02059 units=km
New "Line.SBT_5237" phases=3 bus1="BT85371.1.2.3.4" bus2="ET1_39.1.2.3.4" linecode="101_4" length=0.02029 units=km
New "Line.SBT_5243" phases=3 bus1="BT12351.1.2.3.4" bus2="BT13301.1.2.3.4" linecode="85_4" length=0.03600 units=km
New "Line.SBT_5244" phases=3 bus1="BT13301.1.2.3.4" bus2="BT10921.1.2.3.4" linecode="85_4" length=0.00900 units=km
New "Line.SBT_5247" phases=3 bus1="BT26001.1.2.3.4" bus2="BT26011.1.2.3.4" linecode="101_4" length=0.04100 units=km
New "Line.SBT_5246" phases=1 bus1="BT83421.3.4" bus2="BT83431.3.4" linecode="92_2" length=0.04493 units=km
New "Line.SBT_5248" phases=3 bus1="BT26011.1.2.3.4" bus2="ET1_122.1.2.3.4" linecode="101_4" length=0.04105 units=km
New "Line.SBT_5250" phases=3 bus1="BT85401.1.2.3.4" bus2="BT82241.1.2.3.4" linecode="85_4" length=0.04515 units=km
New "Line.SBT_5251" phases=3 bus1="BT5712.1.2.3.4" bus2="BT5702.1.2.3.4" linecode="100_4" length=0.04650 units=km
New "Line.SBT_5252" phases=1 bus1="BT8311.1.4" bus2="BT17921.1.4" linecode="27_2" length=0.04300 units=km
New "Line.SBT_5253" phases=1 bus1="BT8312.3.4" bus2="BT11071.3.4" linecode="27_2" length=0.08600 units=km
New "Line.SBT_5216" phases=3 bus1="BT85331.1.2.3.4" bus2="BT34721.1.2.3.4" linecode="101_4" length=0.00735 units=km
New "Line.SBT_5219" phases=1 bus1="BT80761.3.4" bus2="BT15421.3.4" linecode="92_2" length=0.02057 units=km
New "Line.SBT_5220" phases=1 bus1="BT85361.3.4" bus2="BT4551.3.4" linecode="92_2" length=0.03762 units=km
New "Line.SBT_5225" phases=3 bus1="BT1371.1.2.3.4" bus2="BT33591.1.2.3.4" linecode="101_4" length=0.02432 units=km
New "Line.SBT_5226" phases=3 bus1="BT1381.1.2.3.4" bus2="BT1371.1.2.3.4" linecode="101_4" length=0.04050 units=km
New "Line.SBT_5227" phases=3 bus1="BT1561.1.2.3.4" bus2="BT32861.1.2.3.4" linecode="101_4" length=0.02433 units=km
New "Line.SBT_5228" phases=3 bus1="BT1611.1.2.3.4" bus2="BT3041.1.2.3.4" linecode="101_4" length=0.04000 units=km
New "Line.SBT_5229" phases=3 bus1="BT3041.1.2.3.4" bus2="ET1_39.1.2.3.4" linecode="101_4" length=0.03300 units=km
New "Line.SBT_5231" phases=3 bus1="BT14711.1.2.3.4" bus2="BT14721.1.2.3.4" linecode="101_4" length=0.03700 units=km
New "Line.SBT_5232" phases=3 bus1="BT14721.1.2.3.4" bus2="BT14731.1.2.3.4" linecode="101_4" length=0.04500 units=km
New "Line.SBT_5233" phases=3 bus1="BT14731.1.2.3.4" bus2="BT14741.1.2.3.4" linecode="101_4" length=0.04300 units=km
New "Line.SBT_5234" phases=3 bus1="BT14741.1.2.3.4" bus2="BT1381.1.2.3.4" linecode="101_4" length=0.04250 units=km
New "Line.SBT_5235" phases=3 bus1="BT32861.1.2.3.4" bus2="BT1611.1.2.3.4" linecode="101_4" length=0.01531 units=km
New "Line.SBT_5236" phases=3 bus1="BT33591.1.2.3.4" bus2="BT85371.1.2.3.4" linecode="101_4" length=0.01104 units=km
New "Line.SBT_5197" phases=3 bus1="BT85301.1.2.3.4" bus2="BT85291.1.2.3.4" linecode="101_4" length=0.03138 units=km
New "Line.SBT_5198" phases=3 bus1="BT28041.1.2.3.4" bus2="BT31881.1.2.3.4" linecode="101_4" length=0.03800 units=km
New "Line.SBT_5199" phases=3 bus1="BT28042.1.2.3.4" bus2="BT28771.1.2.3.4" linecode="101_4" length=0.04357 units=km
New "Line.SBT_5200" phases=3 bus1="BT28051.1.2.3.4" bus2="BT31881.1.2.3.4" linecode="101_4" length=0.01172 units=km
New "Line.SBT_5201" phases=3 bus1="BT28061.1.2.3.4" bus2="BT28051.1.2.3.4" linecode="101_4" length=0.04108 units=km
New "Line.SBT_5202" phases=3 bus1="BT28062.1.2.3.4" bus2="BT28071.1.2.3.4" linecode="101_4" length=0.04350 units=km
New "Line.SBT_5203" phases=3 bus1="BT28071.1.2.3.4" bus2="BT32921.1.2.3.4" linecode="101_4" length=0.01713 units=km
New "Line.SBT_5204" phases=3 bus1="BT28082.1.2.3.4" bus2="BT32921.1.2.3.4" linecode="101_4" length=0.02335 units=km
New "Line.SBT_5205" phases=3 bus1="BT28771.1.2.3.4" bus2="BT26991.1.2.3.4" linecode="101_4" length=0.03037 units=km
New "Line.SBT_5206" phases=3 bus1="BT1401.1.2.3.4" bus2="ET1_116.1.2.3.4" linecode="101_4" length=0.03851 units=km
New "Line.SBT_5207" phases=3 bus1="BT1411.1.2.3.4" bus2="BT1401.1.2.3.4" linecode="101_4" length=0.03400 units=km
New "Line.SBT_5208" phases=3 bus1="BT3111.1.2.3.4" bus2="ET1_116.1.2.3.4" linecode="101_4" length=0.04749 units=km
New "Line.SBT_5209" phases=3 bus1="BT34721.1.2.3.4" bus2="BT3111.1.2.3.4" linecode="101_4" length=0.02785 units=km
New "Line.SBT_5210" phases=1 bus1="BT83682.3.4" bus2="BT85331.3.4" linecode="92_2" length=0.02115 units=km
New "Line.SBT_5211" phases=1 bus1="BT83691.3.4" bus2="BT83682.3.4" linecode="92_2" length=0.03512 units=km
New "Line.SBT_5212" phases=1 bus1="BT83701.3.4" bus2="BT83691.3.4" linecode="92_2" length=0.04020 units=km
New "Line.SBT_5213" phases=3 bus1="BT85311.1.2.3.4" bus2="BT1191.1.2.3.4" linecode="101_4" length=0.03601 units=km
New "Line.SBT_5214" phases=3 bus1="BT85312.1.2.3.4" bus2="BT1411.1.2.3.4" linecode="101_4" length=0.04800 units=km
New "Line.SBT_5178" phases=1 bus1="BT85231.3.4" bus2="BT13871.3.4" linecode="92_2" length=0.02804 units=km
New "Line.SBT_5179" phases=3 bus1="BT13912.1.2.3.4" bus2="BT32411.1.2.3.4" linecode="43_4" length=0.03046 units=km
New "Line.SBT_5180" phases=3 bus1="BT19241.1.2.3.4" bus2="BT85241.1.2.3.4" linecode="44_4" length=0.03346 units=km
New "Line.SBT_5181" phases=3 bus1="BT85241.1.2.3.4" bus2="BT30891.1.2.3.4" linecode="44_4" length=0.04453 units=km
New "Line.SBT_5182" phases=3 bus1="BT19181.1.2.3.4" bus2="BT33681.1.2.3.4" linecode="101_4" length=0.01437 units=km
New "Line.SBT_5183" phases=3 bus1="BT19191.1.2.3.4" bus2="BT33681.1.2.3.4" linecode="101_4" length=0.03200 units=km
New "Line.SBT_5184" phases=3 bus1="BT19201.1.2.3.4" bus2="BT19191.1.2.3.4" linecode="101_4" length=0.04500 units=km
New "Line.SBT_5185" phases=3 bus1="BT19212.1.2.3.4" bus2="BT19201.1.2.3.4" linecode="101_4" length=0.03700 units=km
New "Line.SBT_5186" phases=3 bus1="BT26501.1.2.3.4" bus2="BT34031.1.2.3.4" linecode="101_4" length=0.01871 units=km
New "Line.SBT_5187" phases=3 bus1="BT26511.1.2.3.4" bus2="BT26521.1.2.3.4" linecode="101_4" length=0.04200 units=km
New "Line.SBT_5188" phases=3 bus1="BT26521.1.2.3.4" bus2="BT19181.1.2.3.4" linecode="101_4" length=0.04000 units=km
New "Line.SBT_5189" phases=3 bus1="BT34031.1.2.3.4" bus2="BT26511.1.2.3.4" linecode="101_4" length=0.01872 units=km
New "Line.SBT_5196" phases=3 bus1="BT85291.1.2.3.4" bus2="BT24241.1.2.3.4" linecode="101_4" length=0.02663 units=km
New "Line.SBT_5165" phases=3 bus1="BT22381.1.2.3.4" bus2="BT34281.1.2.3.4" linecode="101_4" length=0.03600 units=km
New "Line.SBT_5166" phases=3 bus1="BT22401.1.2.3.4" bus2="BT85151.1.2.3.4" linecode="101_4" length=0.03280 units=km
New "Line.SBT_5167" phases=3 bus1="BT85151.1.2.3.4" bus2="BT22381.1.2.3.4" linecode="101_4" length=0.03920 units=km
New "Line.SBT_5168" phases=3 bus1="BT85161.1.2.3.4" bus2="BT34281.1.2.3.4" linecode="101_4" length=0.01380 units=km
New "Line.SBT_5169" phases=3 bus1="BT85171.1.2.3.4" bus2="BT85161.1.2.3.4" linecode="101_4" length=0.04402 units=km
New "Line.SBT_5170" phases=3 bus1="BT85181.1.2.3.4" bus2="BT24271.1.2.3.4" linecode="44_4" length=0.03486 units=km
New "Line.SBT_5177" phases=3 bus1="BT17412.1.2.3.4" bus2="BT32601.1.2.3.4" linecode="43_4" length=0.02615 units=km
New "Line.SBT_5132" phases=3 bus1="BT30761.1.2.3.4" bus2="BT31741.1.2.3.4" linecode="85_4" length=0.02607 units=km
New "Line.SBT_5133" phases=3 bus1="BT30771.1.2.3.4" bus2="BT30761.1.2.3.4" linecode="85_4" length=0.04722 units=km
New "Line.SBT_5134" phases=3 bus1="BT85101.1.2.3.4" bus2="BT31741.1.2.3.4" linecode="85_4" length=0.01407 units=km
New "Line.SBT_5135" phases=3 bus1="BT78012.1.2.3.4" bus2="BT85111.1.2.3.4" linecode="101_4" length=0.04900 units=km
New "Line.SBT_5136" phases=3 bus1="BT85111.1.2.3.4" bus2="BT21771.1.2.3.4" linecode="101_4" length=0.04846 units=km
New "Line.SBT_5138" phases=3 bus1="BT85121.1.2.3.4" bus2="BT75261.1.2.3.4" linecode="101_4" length=0.04034 units=km
New "Line.SBT_5081" phases=3 bus1="BT84351.1.2.3.4" bus2="BT84341.1.2.3.4" linecode="101_4" length=0.04164 units=km
New "Line.SBT_5082" phases=3 bus1="BT84361.1.2.3.4" bus2="BT84351.1.2.3.4" linecode="101_4" length=0.03972 units=km
New "Line.SBT_5083" phases=3 bus1="BT84371.1.2.3.4" bus2="BT84361.1.2.3.4" linecode="101_4" length=0.03598 units=km
New "Line.SBT_5084" phases=3 bus1="BT812.1.2.3.4" bus2="BT15811.1.2.3.4" linecode="85_4" length=0.01320 units=km
New "Line.SBT_5090" phases=3 bus1="BT84431.1.2.3.4" bus2="BT80971.1.2.3.4" linecode="101_4" length=0.04230 units=km
New "Line.SBT_5097" phases=3 bus1="BT12491.1.2.3.4" bus2="BT30531.1.2.3.4" linecode="85_4" length=0.04835 units=km
...
