output/2_TAP2_1/Ramais_BT_2_TAP2_1.dss
New "Line.RBT_4114" phases=3 bus1="UC4114.1.2.3.4" bus2="BT20551.1.2.3.4" linecode="86_4" length=0.01900 units=km
New "Line.RBT_11033" phases=2 bus1="UC11033.1.2.4" bus2="BT73391.1.2.4" linecode="93_3" length=0.01500 units=km
New "Line.RBT_11037" phases=2 bus1="UC11037.2.3.4" bus2="BT26431.2.3.4" linecode="93_3" length=0.00800 units=km
New "Line.RBT_10339" phases=1 bus1="UC10339.2.4" bus2="BT651.2.4" linecode="92_2" length=0.02000 units=km
New "Line.RBT_2865" phases=3 bus1="UC2865.1.2.3.4" bus2="BT1541.1.2.3.4" linecode="86_4" length=0.03300 units=km
New "Line.RBT_4384" phases=1 bus1="UC4384.2.4" bus2="BT75331.2.4" linecode="92_2" length=0.00500 units=km
New "Line.RBT_1887" phases=1 bus1="UC1887.1.4" bus2="BT77391.1.4" linecode="92_2" length=0.00700 units=km
New "Line.RBT_10911" phases=1 bus1="UC10911.2.4" bus2="BT69871.2.4" linecode="92_2" length=0.01500 units=km
New "Line.RBT_10925" phases=1 bus1="UC10925.1.4" bus2="BT69071.1.4" linecode="92_2" length=0.00650 units=km
New "Line.RBT_11057" phases=1 bus1="UC11057.1.4" bus2="BT74081.1.4" linecode="92_2" length=0.01300 units=km
New "Line.RBT_3205" phases=2 bus1="UC3205.1.2.4" bus2="BT19261.1.2.4" linecode="93_3" length=0.00900 units=km
New "Line.RBT_4313" phases=3 bus1="UC4313.1.2.3.4" bus2="BT22681.1.2.3.4" linecode="86_4" length=0.01700 units=km
New "Line.RBT_3872" phases=1 bus1="UC3872.3.4" bus2="BT21331.3.4" linecode="102_2" length=0.01700 units=km
New "Line.RBT_3826" phases=1 bus1="UC3826.3.4" bus2="BT29131.3.4" linecode="87_2" length=0.02100 units=km
New "Line.RBT_8010" phases=3 bus1="UC8010.1.2.3.4" bus2="ET2_507.1.2.3.4" linecode="86_4" length=0.00500 units=km
New "Line.RBT_1830" phases=1 bus1="UC1830.1.4" bus2="BT6891.1.4" linecode="92_2" length=0.01300 units=km
New "Line.RBT_9087" phases=2 bus1="UC9087.2.3.4" bus2="BT67101.2.3.4" linecode="93_3" length=0.02500 units=km
New "Line.RBT_10923" phases=2 bus1="UC10923.1.2.4" bus2="BT76081.1.2.4" linecode="93_3" length=0.02000 units=km
New "Line.RBT_10936" phases=2 bus1="UC10936.2.3.4" bus2="BT66551.2.3.4" linecode="93_3" length=0.00500 units=km
New "Line.RBT_7737" phases=1 bus1="UC7737.1.4" bus2="BT81851.1.4" linecode="92_2" length=0.00600 units=km
New "Line.RBT_3643" phases=3 bus1="UC3643.1.2.3.4" bus2="BT28701.1.2.3.4" linecode="86_4" length=0.02900 units=km
New "Line.RBT_10126" phases=3 bus1="UC10126.1.2.3.4" bus2="ET1_4.1.2.3.4" linecode="86_4" length=0.01600 units=km
New "Line.RBT_3504" phases=1 bus1="UC3504.1.4" bus2="BT24181.1.4" linecode="92_2" length=0.02800 units=km
New "Line.RBT_6047" phases=3 bus1="UC6047.1.2.3.4" bus2="BT82711.1.2.3.4" linecode="94_4" length=0.00500 units=km
New "Line.RBT_2700" phases=1 bus1="UC2700.3.4" bus2="BT3931.3.4" linecode="87_2" length=0.01200 units=km
New "Line.RBT_7018" phases=1 bus1="UC7018.2.4" bus2="BT8921.2.4" linecode="87_2" length=0.01350 units=km
New "Line.RBT_2487" phases=1 bus1="UC2487.2.4" bus2="BT16891.2.4" linecode="102_2" length=0.01500 units=km
New "Line.RBT_2303" phases=1 bus1="UC2303.3.4" bus2="BT5131.3.4" linecode="102_2" length=0.00600 units=km
New "Line.RBT_3394" phases=1 bus1="UC3394.1.4" bus2="BT19431.1.4" linecode="92_2" length=0.02600 units=km
New "Line.RBT_1270" phases=1 bus1="UC1270.1.4" bus2="BT79041.1.4" linecode="92_2" length=0.01700 units=km
New "Line.RBT_10913" phases=1 bus1="UC10913.2.4" bus2="BT12351.2.4" linecode="92_2" length=0.00300 units=km
New "Line.RBT_4441" phases=2 bus1="UC4441.2.3.4" bus2="BT30821.2.3.4" linecode="95_3" length=0.00500 units=km
New "Line.RBT_4443" phases=2 bus1="UC4443.1.2.4" bus2="BT68271.1.2.4" linecode="93_3" length=0.01600 units=km
New "Line.RBT_3953" phases=1 bus1="UC3953.3.4" bus2="ET2_517.3.4" linecode="92_2" length=0.02900 units=km
New "Line.RBT_5841" phases=1 bus1="UC5841.1.4" bus2="BT26411.1.4" linecode="102_2" length=0.01850 units=km
New "Line.RBT_4253" phases=3 bus1="UC4253.1.2.3.4" bus2="BT21791.1.2.3.4" linecode="103_4" length=0.01100 units=km
New "Line.RBT_1952" phases=2 bus1="UC1952.1.2.4" bus2="BT28511.1.2.4" linecode="93_3" length=0.02550 units=km
New "Line.RBT_3467" phases=1 bus1="UC3467.1.4" bus2="BT20341.1.4" linecode="92_2" length=0.01250 units=km
New "Line.RBT_5783" phases=1 bus1="UC5783.3.4" bus2="BT17981.3.4" linecode="92_2" length=0.01650 units=km
New "Line.RBT_4064" phases=3 bus1="UC4064.1.2.3.4" bus2="BT28031.1.2.3.4" linecode="104_4" length=0.00650 units=km
New "Line.RBT_3473" phases=1 bus1="UC3473.2.4" bus2="BT28891.2.4" linecode="92_2" length=0.01100 units=km
New "Line.RBT_3421" phases=1 bus1="UC3421.2.4" bus2="BT26851.2.4" linecode="102_2" length=0.00900 units=km
New "Line.RBT_1493" phases=1 bus1="UC1493.2.4" bus2="BT7201.2.4" linecode="102_2" length=0.01300 units=km
New "Line.RBT_6152" phases=1 bus1="UC6152.1.4" bus2="BT9721.1.4" linecode="102_2" length=0.01800 units=km
New "Line.RBT_4202" phases=1 bus1="UC4202.3.4" bus2="BT28201.3.4" linecode="87_2" length=0.00700 units=km
New "Line.RBT_1809" phases=1 bus1="UC1809.3.4" bus2="BT77391.3.4" linecode="87_2" length=0.01000 units=km
New "Line.RBT_7444" phases=1 bus1="UC7444.2.4" bus2="BT18161.2.4" linecode="87_2" length=0.02000 units=km
New "Line.RBT_5900" phases=3 bus1="UC5900.1.2.3.4" bus2="BT5211.1.2.3.4" linecode="86_4" length=0.02500 units=km
New "Line.RBT_4022" phases=2 bus1="UC4022.1.2.4" bus2="BT22401.1.2.4" linecode="93_3" length=0.02600 units=km
New "Line.RBT_5693" phases=1 bus1="UC5693.1.4" bus2="BT9731.1.4" linecode="102_2" length=0.01800 units=km
New "Line.RBT_4218" phases=2 bus1="UC4218.3.1.4" bus2="BT21421.3.1.4" linecode="93_3" length=0.01200 units=km
New "Line.RBT_597" phases=1 bus1="UC597.2.4" bus2="BT661.2.4" linecode="102_2" length=0.00900 units=km
New "Line.RBT_9271" phases=1 bus1="UC9271.1.4" bus2="BT10251.1.4" linecode="87_2" length=0.00400 units=km
New "Line.RBT_3675" phases=3 bus1="UC3675.1.2.3.4" bus2="BT22691.1.2.3.4" linecode="94_4" length=0.00500 units=km
New "Line.RBT_2332" phases=2 bus1="UC2332.2.3.4" bus2="BT17932.2.3.4" linecode="93_3" length=0.02000 units=km
New "Line.RBT_7456" phases=1 bus1="UC7456.1.4" bus2="BT4841.1.4" linecode="102_2" length=0.01200 units=km
New "Line.RBT_11110" phases=3 bus1="UC11110.1.2.3.4" bus2="BT3142.1.2.3.4" linecode="86_4" length=0.01800 units=km
New "Line.RBT_4475" phases=1 bus1="UC4475.2.4" bus2="BT20331.2.4" linecode="92_2" length=0.02000 units=km
New "Line.RBT_2994" phases=1 bus1="UC2994.1.4" bus2="BT4131.1.4" linecode="87_2" length=0.01400 units=km
New "Line.RBT_3759" phases=1 bus1="UC3759.2.4" bus2="BT27861.2.4" linecode="92_2" length=0.00600 units=km
New "Line.RBT_4343" phases=3 bus1="UC4343.1.2.3.4" bus2="BT76241.1.2.3.4" linecode="94_4" length=0.01450 units=km
New "Line.RBT_2744" phases=1 bus1="UC2744.2.4" bus2="BT6661.2.4" linecode="102_2" length=0.01800 units=km
New "Line.RBT_7203" phases=1 bus1="UC7203.1.4" bus2="BT12871.1.4" linecode="102_2" length=0.02000 units=km
New "Line.RBT_4029" phases=3 bus1="UC4029.1.2.3.4" bus2="BT30801.1.2.3.4" linecode="86_4" length=0.01100 units=km
New "Line.RBT_3671" phases=2 bus1="UC3671.1.2.4" bus2="BT30701.1.2.4" linecode="93_3" length=0.00500 units=km
New "Line.RBT_2701" phases=1 bus1="UC2701.1.4" bus2="BT23521.1.4" linecode="102_2" length=0.02100 units=km
New "Line.RBT_5806" phases=1 bus1="UC5806.1.4" bus2="BT8291.1.4" linecode="87_2" length=0.01100 units=km
New "Line.RBT_362" phases=1 bus1="UC362.1.4" bus2="BT10731.1.4" linecode="102_2" length=0.01900 units=km
New "Line.RBT_11113" phases=3 bus1="UC11113.1.2.3.4" bus2="BT18381.1.2.3.4" linecode="86_4" length=0.00500 units=km
New "Line.RBT_10957" phases=1 bus1="UC10957.3.4" bus2="BT69111.3.4" linecode="92_2" length=0.00550 units=km
New "Line.RBT_624" phases=1 bus1="UC624.1.4" bus2="BT9811.1.4" linecode="92_2" length=0.01900 units=km
New "Line.RBT_6218" phases=2 bus1="UC6218.3.1.4" bus2="BT17991.3.1.4" linecode="93_3" length=0.01400 units=km
New "Line.RBT_3795" phases=1 bus1="UC3795.2.4" bus2="BT74021.2.4" linecode="102_2" length=0.01000 units=km
New "Line.RBT_4481" phases=1 bus1="UC4481.3.4" bus2="BT74461.3.4" linecode="87_2" length=0.00500 units=km
New "Line.RBT_3096" phases=1 bus1="UC3096.3.4" bus2="BT28781.3.4" linecode="87_2" length=0.00350 units=km
New "Line.RBT_3174" phases=1 bus1="UC3174.2.4" bus2="BT28701.2.4" linecode="92_2" length=0.01650 units=km
New "Line.RBT_4307" phases=3 bus1="UC4307.1.2.3.4" bus2="BT20641.1.2.3.4" linecode="86_4" length=0.02300 units=km
New "Line.RBT_7650" phases=1 bus1="UC7650.1.4" bus2="BT4021.1.4" linecode="102_2" length=0.02100 units=km
New "Line.RBT_9484" phases=3 bus1="UC9484.1.2.3.4" bus2="ET1_42.1.2.3.4" linecode="86_4" length=0.02300 units=km
New "Line.RBT_3879" phases=1 bus1="UC3879.1.4" bus2="BT29811.1.4" linecode="87_2" length=0.01950 units=km
New "Line.RBT_304" phases=2 bus1="UC304.3.1.4" bus2="BT711.3.1.4" linecode="93_3" length=0.00800 units=km
New "Line.RBT_1558" phases=1 bus1="UC1558.3.4" bus2="BT12001.3.4" linecode="102_2" length=0.01500 units=km
New "Line.RBT_3274" phases=1 bus1="UC3274.3.4" bus2="BT22331.3.4" linecode="87_2" length=0.00750 units=km
New "Line.RBT_3294" phases=1 bus1="UC3294.1.4" bus2="BT29961.1.4" linecode="92_2" length=0.00850 units=km
New "Line.RBT_3457" phases=1 bus1="UC3457.1.4" bus2="BT28211.1.4" linecode="87_2" length=0.03000 units=km
New "Line.RBT_3668" phases=1 bus1="UC3668.1.4" bus2="BT26851.1.4" linecode="87_2" length=0.01500 units=km
New "Line.RBT_3308" phases=1 bus1="UC3308.3.4" bus2="BT19271.3.4" linecode="102_2" length=0.01900 units=km
New "Line.RBT_6115" phases=2 bus1="UC6115.1.2.4" bus2="BT6682.1.2.4" linecode="93_3" length=0.00500 units=km
New "Line.RBT_3124" phases=1 bus1="UC3124.2.4" bus2="BT22621.2.4" linecode="102_2" length=0.01850 units=km
New "Line.RBT_3113" phases=1 bus1="UC3113.2.4" bus2="BT18931.2.4" linecode="87_2" length=0.02300 units=km
New "Line.RBT_6432" phases=1 bus1="UC6432.3.4" bus2="BT16891.3.4" linecode="102_2" length=0.01800 units=km
New "Line.RBT_5720" phases=3 bus1="UC5720.1.2.3.4" bus2="BT9451.1.2.3.4" linecode="123_4" length=0.01700 units=km
New "Line.RBT_7355" phases=1 bus1="UC7355.2.4" bus2="BT81821.2.4" linecode="102_2" length=0.01700 units=km
New "Line.RBT_3479" phases=1 bus1="UC3479.1.4" bus2="BT25681.1.4" linecode="102_2" length=0.01100 units=km
New "Line.RBT_8495" phases=1 bus1="UC8495.1.4" bus2="BT12881.1.4" linecode="102_2" length=0.01400 units=km
New "Line.RBT_5798" phases=1 bus1="UC5798.1.4" bus2="BT1631.1.4" linecode="92_2" length=0.01900 units=km
New "Line.RBT_2766" phases=1 bus1="UC2766.3.4" bus2="BT77451.3.4" linecode="102_2" length=0.01800 units=km
New "Line.RBT_7164" phases=3 bus1="UC7164.1.2.3.4" bus2="BT25981.1.2.3.4" linecode="94_4" length=0.01000 units=km
New "Line.RBT_5045" phases=3 bus1="UC5045.1.2.3.4" bus2="BT31101.1.2.3.4" linecode="94_4" length=0.03000 units=km
New "Line.RBT_4275" phases=2 bus1="UC4275.3.1.4" bus2="BT70151.3.1.4" linecode="93_3" length=0.00800 units=km
New "Line.RBT_3186" phases=1 bus1="UC3186.3.4" bus2="BT30071.3.4" linecode="92_2" length=0.00400 units=km
New "Line.RBT_7411" phases=1 bus1="UC7411.2.4" bus2="BT17361.2.4" linecode="102_2" length=0.00800 units=km
New "Line.RBT_3772" phases=1 bus1="UC3772.3.4" bus2="BT22531.3.4" linecode="92_2" length=0.00600 units=km
New "Line.RBT_3461" phases=1 bus1="UC3461.2.4" bus2="BT26451.2.4" linecode="92_2" length=0.01900 units=km
New "Line.RBT_11248" phases=1 bus1="UC11248.1.4" bus2="BT5101.1.4" linecode="92_2" length=0.01000 units=km
New "Line.RBT_3325" phases=1 bus1="UC3325.2.4" bus2="BT30422.2.4" linecode="102_2" length=0.01800 units=km
New "Line.RBT_3033" phases=2 bus1="UC3033.1.2.4" bus2="BT29151.1.2.4" linecode="106_3" length=0.02100 units=km
New "Line.RBT_3590" phases=1 bus1="UC3590.2.4" bus2="ET2_517.2.4" linecode="92_2" length=0.02800 units=km
New "Line.RBT_3007" phases=2 bus1="UC3007.3.1.4" bus2="BT28252.3.1.4" linecode="106_3" length=0.01550 units=km
New "Line.RBT_9156" phases=3 bus1="UC9156.1.2.3.4" bus2="BT8941.1.2.3.4" linecode="86_4" length=0.01900 units=km
New "Line.RBT_7446" phases=1 bus1="UC7446.3.4" bus2="BT14822.3.4" linecode="92_2" length=0.00900 units=km
New "Line.RBT_3911" phases=2 bus1="UC3911.3.1.4" bus2="BT29991.3.1.4" linecode="93_3" length=0.02400 units=km
New "Line.RBT_5525" phases=1 bus1="UC5525.3.4" bus2="BT12281.3.4" linecode="87_2" length=0.01800 units=km
New "Line.RBT_8458" phases=1 bus1="UC8458.3.4" bus2="BT5892.3.4" linecode="87_2" length=0.01700 units=km
New "Line.RBT_9221" phases=3 bus1="UC9221.1.2.3.4" bus2="BT67861.1.2.3.4" linecode="86_4" length=0.00400 units=km
New "Line.RBT_2714" phases=1 bus1="UC2714.1.4" bus2="BT71551.1.4" linecode="102_2" length=0.02200 units=km
New "Line.RBT_10494" phases=3 bus1="UC10494.1.2.3.4" bus2="BT9811.1.2.3.4" linecode="86_4" length=0.01700 units=km
New "Line.RBT_7061" phases=2 bus1="UC7061.1.2.4" bus2="BT4471.1.2.4" linecode="95_3" length=0.01000 units=km
New "Line.RBT_3388" phases=1 bus1="UC3388.2.4" bus2="BT28041.2.4" linecode="92_2" length=0.00650 units=km
New "Line.RBT_2304" phases=1 bus1="UC2304.2.4" bus2="BT5111.2.4" linecode="102_2" length=0.00600 units=km
New "Line.RBT_11244" phases=1 bus1="UC11244.3.4" bus2="BT6561.3.4" linecode="92_2" length=0.01300 units=km
New "Line.RBT_8012" phases=3 bus1="UC8012.1.2.3.4" bus2="BT75331.1.2.3.4" linecode="86_4" length=0.02000 units=km
New "Line.RBT_2694" phases=1 bus1="UC2694.3.4" bus2="ET1_48.3.4" linecode="92_2" length=0.01700 units=km
New "Line.RBT_8917" phases=2 bus1="UC8917.2.3.4" bus2="BT77411.2.3.4" linecode="93_3" length=0.00800 units=km
New "Line.RBT_2152" phases=2 bus1="UC2152.1.2.4" bus2="BT5051.1.2.4" linecode="95_3" length=0.02500 units=km
New "Line.RBT_1065" phases=1 bus1="UC1065.2.4" bus2="BT12241.2.4" linecode="92_2" length=0.01700 units=km
New "Line.RBT_8125" phases=2 bus1="UC8125.2.3.4" bus2="BT4811.2.3.4" linecode="106_3" length=0.01700 units=km
New "Line.RBT_2678" phases=1 bus1="UC2678.2.4" bus2="BT6561.2.4" linecode="102_2" length=0.00900 units=km
New "Line.RBT_2761" phases=1 bus1="UC2761.1.4" bus2="BT6561.1.4" linecode="102_2" length=0.00800 units=km
New "Line.RBT_1225" phases=1 bus1="UC1225.1.4" bus2="BT5951.1.4" linecode="102_2" length=0.01000 units=km
New "Line.RBT_5444" phases=1 bus1="UC5444.3.4" bus2="BT5951.3.4" linecode="102_2" length=0.00900 units=km
New "Line.RBT_7196" phases=2 bus1="UC7196.1.2.4" bus2="BT5911.1.2.4" linecode="93_3" length=0.01500 units=km
New "Line.RBT_3806" phases=1 bus1="UC3806.2.4" bus2="BT26631.2.4" linecode="102_2" length=0.02400 units=km
New "Line.RBT_2626" phases=1 bus1="UC2626.2.4" bus2="BT65052.2.4" linecode="102_2" length=0.01400 units=km
New "Line.RBT_7754" phases=1 bus1="UC7754.3.4" bus2="BT4021.3.4" linecode="87_2" length=0.01850 units=km
New "Line.RBT_10295" phases=1 bus1="UC10295.3.4" bus2="BT69361.3.4" linecode="92_2" length=0.01300 units=km
New "Line.RBT_4433" phases=2 bus1="UC4433.3.1.4" bus2="BT8071.3.1.4" linecode="93_3" length=0.01800 units=km
New "Line.RBT_4434" phases=3 bus1="UC4434.1.2.3.4" bus2="BT11951.1.2.3.4" linecode="86_4" length=0.00800 units=km
New "Line.RBT_4436" phases=1 bus1="UC4436.3.4" bus2="ET2_527.3.4" linecode="92_2" length=0.01800 units=km
New "Line.RBT_3756" phases=1 bus1="UC3756.2.4" bus2="BT29591.2.4" linecode="92_2" length=0.00300 units=km
New "Line.RBT_4131" phases=1 bus1="UC4131.3.4" bus2="BT28061.3.4" linecode="92_2" length=0.02000 units=km
New "Line.RBT_4129" phases=3 bus1="UC4129.1.2.3.4" bus2="BT28321.1.2.3.4" linecode="86_4" length=0.01400 units=km
New "Line.RBT_10196" phases=2 bus1="UC10196.1.2.4" bus2="BT72781.1.2.4" linecode="93_3" length=0.00400 units=km
New "Line.RBT_10224" phases=2 bus1="UC10224.2.3.4" bus2="BT72801.2.3.4" linecode="106_3" length=0.00400 units=km
New "Line.RBT_5445" phases=1 bus1="UC5445.1.4" bus2="BT19741.1.4" linecode="87_2" length=0.03000 units=km
New "Line.RBT_10692" phases=3 bus1="UC10692.1.2.3.4" bus2="BT6221.1.2.3.4" linecode="86_4" length=0.01200 units=km
New "Line.RBT_117" phases=2 bus1="UC117.3.1.4" bus2="BT9711.3.1.4" linecode="93_3" length=0.01500 units=km
New "Line.RBT_1534" phases=1 bus1="UC1534.1.4" bus2="BT5101.1.4" linecode="102_2" length=0.00900 units=km
New "Line.RBT_3129" phases=1 bus1="UC3129.1.4" bus2="BT28771.1.4" linecode="92_2" length=0.00800 units=km
New "Line.RBT_9546" phases=1 bus1="UC9546.3.4" bus2="BT3931.3.4" linecode="92_2" length=0.01500 units=km
New "Line.RBT_10243" phases=2 bus1="UC10243.1.2.4" bus2="BT69081.1.2.4" linecode="93_3" length=0.01100 units=km
New "Line.RBT_10248" phases=1 bus1="UC10248.3.4" bus2="BT69741.3.4" linecode="92_2" length=0.01900 units=km
New "Line.RBT_10222" phases=1 bus1="UC10222.1.4" bus2="BT78751.1.4" linecode="92_2" length=0.00600 units=km
New "Line.RBT_10238" phases=1 bus1="UC10238.1.4" bus2="BT69651.1.4" linecode="92_2" length=0.00900 units=km
New "Line.RBT_9994" phases=1 bus1="UC9994.1.4" bus2="BT69691.1.4" linecode="92_2" length=0.01400 units=km
New "Line.RBT_9992" phases=1 bus1="UC9992.1.4" bus2="BT69791.1.4" linecode="92_2" length=0.01600 units=km
New "Line.RBT_3013" phases=1 bus1="UC3013.2.4" bus2="BT28301.2.4" linecode="87_2" length=0.01500 units=km
New "Line.RBT_8880" phases=1 bus1="UC8880.1.4" bus2="BT67871.1.4" linecode="92_2" length=0.00500 units=km
New "Line.RBT_9911" phases=2 bus1="UC9911.3.1.4" bus2="BT15431.3.1.4" linecode="93_3" length=0.00200 units=km
New "Line.RBT_10231" phases=1 bus1="UC10231.3.4" bus2="BT74711.3.4" linecode="92_2" length=0.03900 units=km
New "Line.RBT_10201" phases=1 bus1="UC10201.1.4" bus2="BT28451.1.4" linecode="102_2" length=0.01500 units=km
New "Line.RBT_10219" phases=1 bus1="UC10219.1.4" bus2="BT22001.1.4" linecode="92_2" length=0.02000 units=km
New "Line.RBT_10237" phases=1 bus1="UC10237.1.4" bus2="BT17431.1.4" linecode="92_2" length=0.02100 units=km
New "Line.RBT_3089" phases=1 bus1="UC3089.2.4" bus2="BT21411.2.4" linecode="102_2" length=0.00700 units=km
New "Line.RBT_2683" phases=1 bus1="UC2683.2.4" bus2="BT77451.2.4" linecode="102_2" length=0.01300 units=km
New "Line.RBT_2976" phases=1 bus1="UC2976.2.4" bus2="BT77451.2.4" linecode="102_2" length=0.01600 units=km
New "Line.RBT_2720" phases=1 bus1="UC2720.1.4" bus2="BT22051.1.4" linecode="102_2" length=0.02300 units=km
New "Line.RBT_8251" phases=1 bus1="UC8251.1.4" bus2="BT4971.1.4" linecode="87_2" length=0.01200 units=km
New "Line.RBT_2657" phases=1 bus1="UC2657.3.4" bus2="BT6561.3.4" linecode="92_2" length=0.01200 units=km
New "Line.RBT_10654" phases=1 bus1="UC10654.2.4" bus2="BT69931.2.4" linecode="92_2" length=0.01600 units=km
New "Line.RBT_10768" phases=2 bus1="UC10768.2.3.4" bus2="BT4031.2.3.4" linecode="93_3" length=0.01800 units=km
New "Line.RBT_1791" phases=1 bus1="UC1791.3.4" bus2="BT20741.3.4" linecode="92_2" length=0.00500 units=km
New "Line.RBT_10242" phases=2 bus1="UC10242.1.2.4" bus2="BT22081.1.2.4" linecode="93_3" length=0.00800 units=km
New "Line.RBT_10233" phases=1 bus1="UC10233.2.4" bus2="BT67211.2.4" linecode="92_2" length=0.01000 units=km
New "Line.RBT_9805" phases=3 bus1="UC9805.1.2.3.4" bus2="BT18361.1.2.3.4" linecode="86_4" length=0.00500 units=km
New "Line.RBT_9811" phases=1 bus1="UC9811.2.4" bus2="BT15421.2.4" linecode="92_2" length=0.01000 units=km
New "Line.RBT_2635" phases=2 bus1="UC2635.3.1.4" bus2="BT65052.3.1.4" linecode="93_3" length=0.00800 units=km
New "Line.RBT_9817" phases=3 bus1="UC9817.1.2.3.4" bus2="BT69041.1.2.3.4" linecode="86_4" length=0.02200 units=km
New "Line.RBT_9797" phases=1 bus1="UC9797.3.4" bus2="BT69931.3.4" linecode="92_2" length=0.00600 units=km
New "Line.RBT_10018" phases=2 bus1="UC10018.3.1.4" bus2="BT10911.3.1.4" linecode="93_3" length=0.01400 units=km
New "Line.RBT_10034" phases=1 bus1="UC10034.2.4" bus2="BT66721.2.4" linecode="92_2" length=0.01800 units=km
New "Line.RBT_10043" phases=1 bus1="UC10043.2.4" bus2="BT16981.2.4" linecode="102_2" length=0.02800 units=km
New "Line.RBT_10022" phases=1 bus1="UC10022.2.4" bus2="BT28501.2.4" linecode="92_2" length=0.01950 units=km
New "Line.RBT_4121" phases=1 bus1="UC4121.3.4" bus2="BT20591.3.4" linecode="92_2" length=0.00600 units=km
New "Line.RBT_8800" phases=1 bus1="UC8800.2.4" bus2="BT12011.2.4" linecode="102_2" length=0.00600 units=km
New "Line.RBT_8811" phases=1 bus1="UC8811.1.4" bus2="BT10761.1.4" linecode="92_2" length=0.01700 units=km
New "Line.RBT_9855" phases=1 bus1="UC9855.3.4" bus2="BT6691.3.4" linecode="92_2" length=0.02100 units=km
New "Line.RBT_9856" phases=3 bus1="UC9856.1.2.3.4" bus2="BT10271.1.2.3.4" linecode="86_4" length=0.01150 units=km
New "Line.RBT_9935" phases=2 bus1="UC9935.3.1.4" bus2="BT1371.3.1.4" linecode="93_3" length=0.00700 units=km
New "Line.RBT_9975" phases=1 bus1="UC9975.1.4" bus2="BT6601.1.4" linecode="92_2" length=0.01600 units=km
New "Line.RBT_9944" phases=1 bus1="UC9944.3.4" bus2="BT22011.3.4" linecode="92_2" length=0.02400 units=km
New "Line.RBT_9946" phases=3 bus1="UC9946.1.2.3.4" bus2="BT29661.1.2.3.4" linecode="86_4" length=0.01300 units=km
New "Line.RBT_9934" phases=1 bus1="UC9934.1.4" bus2="BT10231.1.4" linecode="92_2" length=0.01500 units=km
New "Line.RBT_9971" phases=3 bus1="UC9971.1.2.3.4" bus2="BT67121.1.2.3.4" linecode="86_4" length=0.00400 units=km
New "Line.RBT_3071" phases=2 bus1="UC3071.3.1.4" bus2="ET2_505.3.1.4" linecode="93_3" length=0.01200 units=km
New "Line.RBT_6889" phases=1 bus1="UC6889.3.4" bus2="BT5901.3.4" linecode="92_2" length=0.01200 units=km
New "Line.RBT_1758" phases=1 bus1="UC1758.2.4" bus2="BT20731.2.4" linecode="92_2" length=0.01600 units=km
New "Line.RBT_10120" phases=1 bus1="UC10120.3.4" bus2="BT66791.3.4" linecode="92_2" length=0.01800 units=km
New "Line.RBT_3317" phases=1 bus1="UC3317.3.4" bus2="BT30801.3.4" linecode="102_2" length=0.01500 units=km
New "Line.RBT_10767" phases=3 bus1="UC10767.1.2.3.4" bus2="BT4051.1.2.3.4" linecode="86_4" length=0.01400 units=km
...
