output/2_TAP2_1/Transformador_MTBT_2_TAP2_1.dss
New "Transformer.TRF_1_217" phases=3 windings=2 buses=["86751.1.2.3" "ET1_217.1.2.3.4"] conns=[Delta Wye ] kvs=[13.8 0.38] taps=[1.045 1.045] kvas=[112.5 112.5] %loadloss=1.876 %noloadloss=0.382
New "Reactor.TRF_1_217 phases=1 bus1="ET1_217.4" R=15 X=0 basefeq=60

New "Transformer.TRF_1_110" phases=3 windings=2 buses=["25191.1.2.3" "ET1_110.1.2.3.4"] conns=[Delta Wye ] kvs=[13.8 0.38] taps=[1.045 1.045] kvas=[45.0 45.0] %loadloss=1.853 %noloadloss=0.478
New "Reactor.TRF_1_110 phases=1 bus1="ET1_110.4" R=15 X=0 basefeq=60

New "Transformer.TRF_1_200" phases=3 windings=2 buses=["82411.1.2.3" "ET1_200.1.2.3.4"] conns=[Delta Wye ] kvs=[7.96 0.44] taps=[1.045 1.045] kvas=[45.0 45.0] %loadloss=1.853 %noloadloss=0.478
New "Reactor.TRF_1_200 phases=1 bus1="ET1_200.4" R=15 X=0 basefeq=60

New "Transformer.TRF_1_210" phases=3 windings=2 buses=["84441.1.2.3" "ET1_210.1.2.3.4"] conns=[Delta Wye ] kvs=[13.8 0.38] taps=[1.045 1.045] kvas=[75.0 75.0] %loadloss=1.769 %noloadloss=0.445
New "Reactor.TRF_1_210 phases=1 bus1="ET1_210.4" R=15 X=0 basefeq=60

New "Transformer.TRF_2_516" phases=3 windings=2 buses=["26441.1.2.3" "ET2_516.1.2.3.4"] conns=[Delta Wye ] kvs=[13.8 0.38] taps=[1.045 1.045] kvas=[112.5 112.5] %loadloss=1.876 %noloadloss=0.382
New "Reactor.TRF_2_516 phases=1 bus1="ET2_516.4" R=15 X=0 basefeq=60

New "Transformer.TRF_1_162" phases=3 windings=2 buses=["30521.1.2.3" "ET1_162.1.2.3.4"] conns=[Delta Wye ] kvs=[13.8 0.38] taps=[1.045 1.045] kvas=[75.0 75.0] %loadloss=1.769 %noloadloss=0.445
New "Reactor.TRF_1_162 phases=1 bus1="ET1_162.4" R=15 X=0 basefeq=60

New "Transformer.TRF_2_502" phases=3 windings=2 buses=["18951.1.2.3" "ET2_502.1.2.3.4"] conns=[Delta Wye ] kvs=[13.8 0.38] taps=[1.045 1.045] kvas=[75.0 75.0] %loadloss=1.769 %noloadloss=0.445
New "Reactor.TRF_2_502 phases=1 bus1="ET2_502.4" R=15 X=0 basefeq=60

New "Transformer.TRF_1_116" phases=3 windings=2 buses=["85321.1.2.3" "ET1_116.1.2.3.4"] conns=[Delta Wye ] kvs=[13.8 0.38] taps=[1.045 1.045] kvas=[45.0 45.0] %loadloss=1.853 %noloadloss=0.478
New "Reactor.TRF_1_116 phases=1 bus1="ET1_116.4" R=15 X=0 basefeq=60

New "Transformer.TRF_1_39" phases=3 windings=2 buses=["3051.1.2.3" "ET1_39.1.2.3.4"] conns=[Delta Wye ] kvs=[13.8 0.38] taps=[1.045 1.045] kvas=[150.0 150.0] %loadloss=1.249 %noloadloss=0.308
New "Reactor.TRF_1_39 phases=1 bus1="ET1_39.4" R=15 X=0 basefeq=60

New "Transformer.TRF_1_135" phases=3 windings=2 buses=["10061.1.2.3" "ET1_135.1.2.3.4"] conns=[Delta Wye ] kvs=[13.8 0.38] taps=[1.045 1.045] kvas=[75.0 75.0] %loadloss=1.769 %noloadloss=0.445
New "Reactor.TRF_1_135 phases=1 bus1="ET1_135.4" R=15 X=0 basefeq=60

New "Transformer.TRF_1_99" phases=3 windings=2 buses=["10311.1.2.3" "ET1_99.1.2.3.4"] conns=[Delta Wye ] kvs=[13.8 0.38] taps=[1.045 1.045] kvas=[75.0 75.0] %loadloss=1.769 %noloadloss=0.445
New "Reactor.TRF_1_99 phases=1 bus1="ET1_99.4" R=15 X=0 basefeq=60

New "Transformer.TRF_1_122" phases=3 windings=2 buses=["26021.1.2.3" "ET1_122.1.2.3.4"] conns=[Delta Wye ] kvs=[13.8 0.38] taps=[1.045 1.045] kvas=[75.0 75.0] %loadloss=1.769 %noloadloss=0.445
New "Reactor.TRF_1_122 phases=1 bus1="ET1_122.4" R=15 X=0 basefeq=60

New "Transformer.TRF_1_114" phases=3 windings=2 buses=["10901.1.2.3" "ET1_114.1.2.3.4"] conns=[Delta Wye ] kvs=[13.8 0.38] taps=[1.045 1.045] kvas=[112.5 112.5] %loadloss=1.876 %noloadloss=0.382
New "Reactor.TRF_1_114 phases=1 bus1="ET1_114.4" R=15 X=0 basefeq=60

New "Transformer.TRF_2_538" phases=3 windings=2 buses=["85641.1.2.3" "ET2_538.1.2.3.4"] conns=[Delta Wye ] kvs=[13.8 0.38] taps=[1.045 1.045] kvas=[75.0 75.0] %loadloss=1.769 %noloadloss=0.445
New "Reactor.TRF_2_538 phases=1 bus1="ET2_538.4" R=15 X=0 basefeq=60

New "Transformer.TRF_1_215" phases=3 windings=2 buses=["85981.1.2.3" "ET1_215.1.2.3.4"] conns=[Delta Wye ] kvs=[13.8 0.38] taps=[1.045 1.045] kvas=[75.0 75.0] %loadloss=1.769 %noloadloss=0.445
New "Reactor.TRF_1_215 phases=1 bus1="ET1_215.4" R=15 X=0 basefeq=60

New "Transformer.TRF_1_216" phases=3 windings=2 buses=["86541.1.2.3" "ET1_216.1.2.3.4"] conns=[Delta Wye ] kvs=[13.8 0.38] taps=[1.045 1.045] kvas=[75.0 75.0] %loadloss=1.769 %noloadloss=0.445
New "Reactor.TRF_1_216 phases=1 bus1="ET1_216.4" R=15 X=0 basefeq=60

New "Transformer.TRF_2_536" phases=3 windings=2 buses=["82921.1.2.3" "ET2_536.1.2.3.4"] conns=[Delta Wye ] kvs=[13.8 0.38] taps=[1.045 1.045] kvas=[75.0 75.0] %loadloss=1.769 %noloadloss=0.445
New "Reactor.TRF_2_536 phases=1 bus1="ET2_536.4" R=15 X=0 basefeq=60

New "Transformer.TRF_1_202" phases=3 windings=2 buses=["83111.1.2.3" "ET1_202.1.2.3.4"] conns=[Delta Wye ] kvs=[13.8 0.38] taps=[1.045 1.045] kvas=[112.5 112.5] %loadloss=1.876 %noloadloss=0.382
New "Reactor.TRF_1_202 phases=1 bus1="ET1_202.4" R=15 X=0 basefeq=60

New "Transformer.TRF_1_203" phases=3 windings=2 buses=["83181.1.2.3" "ET1_203.1.2.3.4"] conns=[Delta Wye ] kvs=[13.8 0.38] taps=[1.045 1.045] kvas=[112.5 112.5] %loadloss=1.876 %noloadloss=0.382
New "Reactor.TRF_1_203 phases=1 bus1="ET1_203.4" R=15 X=0 basefeq=60

New "Transformer.TRF_2_537" phases=3 windings=2 buses=["21471.1.2.3" "ET2_537.1.2.3.4"] conns=[Delta Wye ] kvs=[13.8 0.38] taps=[1.045 1.045] kvas=[150.0 150.0] %loadloss=1.249 %noloadloss=0.308
New "Reactor.TRF_2_537 phases=1 bus1="ET2_537.4" R=15 X=0 basefeq=60

New "Transformer.TRF_1_68" phases=3 windings=2 buses=["28461.1.2.3" "ET1_68.1.2.3.4"] conns=[Delta Wye ] kvs=[13.8 0.38] taps=[1.045 1.045] kvas=[112.5 112.5] %loadloss=1.876 %noloadloss=0.382
New "Reactor.TRF_1_68 phases=1 bus1="ET1_68.4" R=15 X=0 basefeq=60

New "Transformer.TRF_1_56" phases=3 windings=2 buses=["9601.1.2.3" "ET1_56.1.2.3.4"] conns=[Delta Wye ] kvs=[13.8 0.38] taps=[1.045 1.045] kvas=[45.0 45.0] %loadloss=1.853 %noloadloss=0.478
New "Reactor.TRF_1_56 phases=1 bus1="ET1_56.4" R=15 X=0 basefeq=60

New "Transformer.TRF_1_97" phases=3 windings=2 buses=["13941.1.2.3" "ET1_97.1.2.3.4"] conns=[Delta Wye ] kvs=[13.8 0.38] taps=[1.045 1.045] kvas=[112.5 112.5] %loadloss=1.876 %noloadloss=0.382
New "Reactor.TRF_1_97 phases=1 bus1="ET1_97.4" R=15 X=0 basefeq=60

New "Transformer.TRF_2_517" phases=3 windings=2 buses=["26911.1.2.3" "ET2_517.1.2.3.4"] conns=[Delta Wye ] kvs=[13.8 0.38] taps=[1.045 1.045] kvas=[112.5 112.5] %loadloss=1.876 %noloadloss=0.382
New "Reactor.TRF_2_517 phases=1 bus1="ET2_517.4" R=15 X=0 basefeq=60

New "Transformer.TRF_1_137" phases=3 windings=2 buses=["67141.1.2.3" "ET1_137.1.2.3.4"] conns=[Delta Wye ] kvs=[13.8 0.38] taps=[1.045 1.045] kvas=[75.0 75.0] %loadloss=1.769 %noloadloss=0.445
New "Reactor.TRF_1_137 phases=1 bus1="ET1_137.4" R=15 X=0 basefeq=60

New "Transformer.TRF_1_4" phases=3 windings=2 buses=["9821.1.2.3" "ET1_4.1.2.3.4"] conns=[Delta Wye ] kvs=[13.8 0.38] taps=[1.045 1.045] kvas=[150.0 150.0] %loadloss=1.249 %noloadloss=0.308
New "Reactor.TRF_1_4 phases=1 bus1="ET1_4.4" R=15 X=0 basefeq=60

New "Transformer.TRF_1_66" phases=3 windings=2 buses=["4061.1.2.3" "ET1_66.1.2.3.4"] conns=[Delta Wye ] kvs=[13.8 0.38] taps=[1.045 1.045] kvas=[112.5 112.5] %loadloss=1.876 %noloadloss=0.382
New "Reactor.TRF_1_66 phases=1 bus1="ET1_66.4" R=15 X=0 basefeq=60

New "Transformer.TRF_1_205" phases=3 windings=2 buses=["28601.1.2.3" "ET1_205.1.2.3.4"] conns=[Delta Wye ] kvs=[13.8 0.38] taps=[1.045 1.045] kvas=[75.0 75.0] %loadloss=1.769 %noloadloss=0.445
New "Reactor.TRF_1_205 phases=1 bus1="ET1_205.4" R=15 X=0 basefeq=60

New "Transformer.TRF_2_501" phases=3 windings=2 buses=["30811.1.2.3" "ET2_501.1.2.3.4"] conns=[Delta Wye ] kvs=[13.8 0.38] taps=[1.045 1.045] kvas=[75.0 75.0] %loadloss=1.769 %noloadloss=0.445
New "Reactor.TRF_2_501 phases=1 bus1="ET2_501.4" R=15 X=0 basefeq=60

New "Transformer.TRF_1_204" phases=3 windings=2 buses=["83601.1.2.3" "ET1_204.1.2.3.4"] conns=[Delta Wye ] kvs=[13.8 0.38] taps=[1.045 1.045] kvas=[75.0 75.0] %loadloss=1.769 %noloadloss=0.445
New "Reactor.TRF_1_204 phases=1 bus1="ET1_204.4" R=15 X=0 basefeq=60

New "Transformer.TRF_1_94" phases=3 windings=2 buses=["17831.1.2.3" "ET1_94.1.2.3.4"] conns=[Delta Wye ] kvs=[13.8 0.38] taps=[1.045 1.045] kvas=[45.0 45.0] %loadloss=1.853 %noloadloss=0.478
New "Reactor.TRF_1_94 phases=1 bus1="ET1_94.4" R=15 X=0 basefeq=60

New "Transformer.TRF_1_113" phases=1 windings=3 buses=["83811.2" "ET1_113.1.2.4"] conns=[Delta Wye ] kvs=[13.8 0.38] taps=[1.045 1.045 1.045] kvas=[10.0 10.0 10.0] %loadloss=2.150 %noloadloss=0.530
New "Reactor.TRF_1_113 phases=1 bus1="ET1_113.4" R=15 X=0 basefeq=60

New "Transformer.TRF_1_93" phases=3 windings=2 buses=["17911.1.2.3" "ET1_93.1.2.3.4"] conns=[Delta Wye ] kvs=[13.8 0.38] taps=[1.045 1.045] kvas=[45.0 45.0] %loadloss=1.853 %noloadloss=0.478
New "Reactor.TRF_1_93 phases=1 bus1="ET1_93.4" R=15 X=0 basefeq=60

New "Transformer.TRF_1_182" phases=3 windings=2 buses=["77691.1.2.3" "ET1_182.1.2.3.4"] conns=[Delta Wye ] kvs=[13.8 0.38] taps=[1.045 1.045] kvas=[150.0 150.0] %loadloss=1.249 %noloadloss=0.308
New "Reactor.TRF_1_182 phases=1 bus1="ET1_182.4" R=15 X=0 basefeq=60

New "Transformer.TRF_2_532" phases=3 windings=2 buses=["26471.1.2.3" "ET2_532.1.2.3.4"] conns=[Delta Wye ] kvs=[13.8 0.38] taps=[1.045 1.045] kvas=[112.5 112.5] %loadloss=1.876 %noloadloss=0.382
New "Reactor.TRF_2_532 phases=1 bus1="ET2_532.4" R=15 X=0 basefeq=60

New "Transformer.TRF_1_184" phases=3 windings=2 buses=["77941.1.2.3" "ET1_184.1.2.3.4"] conns=[Delta Wye ] kvs=[13.8 0.38] taps=[1.045 1.045] kvas=[75.0 75.0] %loadloss=1.769 %noloadloss=0.445
New "Reactor.TRF_1_184 phases=1 bus1="ET1_184.4" R=15 X=0 basefeq=60

New "Transformer.TRF_1_185" phases=3 windings=2 buses=["78091.1.2.3" "ET1_185.1.2.3.4"] conns=[Delta Wye ] kvs=[13.8 0.38] taps=[1.045 1.045] kvas=[45.0 45.0] %loadloss=1.853 %noloadloss=0.478
New "Reactor.TRF_1_185 phases=1 bus1="ET1_185.4" R=15 X=0 basefeq=60

New "Transformer.TRF_1_186" phases=3 windings=2 buses=["78241.1.2.3" "ET1_186.1.2.3.4"] conns=[Delta Wye ] kvs=[13.8 0.38] taps=[1.045 1.045] kvas=[75.0 75.0] %loadloss=1.769 %noloadloss=0.445
New "Reactor.TRF_1_186 phases=1 bus1="ET1_186.4" R=15 X=0 basefeq=60

New "Transformer.TRF_1_187" phases=3 windings=2 buses=["78121.1.2.3" "ET1_187.1.2.3.4"] conns=[Delta Wye ] kvs=[13.8 0.38] taps=[1.045 1.045] kvas=[75.0 75.0] %loadloss=1.769 %noloadloss=0.445
New "Reactor.TRF_1_187 phases=1 bus1="ET1_187.4" R=15 X=0 basefeq=60

New "Transformer.TRF_1_188" phases=3 windings=2 buses=["79521.1.2.3" "ET1_188.1.2.3.4"] conns=[Delta Wye ] kvs=[13.8 0.38] taps=[1.045 1.045] kvas=[75.0 75.0] %loadloss=1.769 %noloadloss=0.445
New "Reactor.TRF_1_188 phases=1 bus1="ET1_188.4" R=15 X=0 basefeq=60

New "Transformer.TRF_1_189" phases=3 windings=2 buses=["79481.1.2.3" "ET1_189.1.2.3.4"] conns=[Delta Wye ] kvs=[13.8 0.38] taps=[1.045 1.045] kvas=[75.0 75.0] %loadloss=1.769 %noloadloss=0.445
New "Reactor.TRF_1_189 phases=1 bus1="ET1_189.4" R=15 X=0 basefeq=60

New "Transformer.TRF_2_533" phases=3 windings=2 buses=["80181.1.2.3" "ET2_533.1.2.3.4"] conns=[Delta Wye ] kvs=[13.8 0.38] taps=[1.045 1.045] kvas=[112.5 112.5] %loadloss=1.876 %noloadloss=0.382
New "Reactor.TRF_2_533 phases=1 bus1="ET2_533.4" R=15 X=0 basefeq=60

New "Transformer.TRF_1_190" phases=3 windings=2 buses=["12721.1.2.3" "ET1_190.1.2.3.4"] conns=[Delta Wye ] kvs=[13.8 0.38] taps=[1.045 1.045] kvas=[15.0 15.0] %loadloss=2.467 %noloadloss=0.733
New "Reactor.TRF_1_190 phases=1 bus1="ET1_190.4" R=15 X=0 basefeq=60

New "Transformer.TRF_2_534" phases=3 windings=2 buses=["80921.1.2.3" "ET2_534.1.2.3.4"] conns=[Delta Wye ] kvs=[13.8 0.38] taps=[1.045 1.045] kvas=[112.5 112.5] %loadloss=1.876 %noloadloss=0.382
New "Reactor.TRF_2_534 phases=1 bus1="ET2_534.4" R=15 X=0 basefeq=60

New "Transformer.TRF_1_192" phases=3 windings=2 buses=["81021.1.2.3" "ET1_192.1.2.3.4"] conns=[Delta Wye ] kvs=[13.8 0.38] taps=[1.045 1.045] kvas=[75.0 75.0] %loadloss=1.769 %noloadloss=0.445
New "Reactor.TRF_1_192 phases=1 bus1="ET1_192.4" R=15 X=0 basefeq=60

New "Transformer.TRF_1_194" phases=3 windings=2 buses=["80811.1.2.3" "ET1_194.1.2.3.4"] conns=[Delta Wye ] kvs=[13.8 0.38] taps=[1.045 1.045] kvas=[75.0 75.0] %loadloss=1.769 %noloadloss=0.445
New "Reactor.TRF_1_194 phases=1 bus1="ET1_194.4" R=15 X=0 basefeq=60

New "Transformer.TRF_2_535" phases=3 windings=2 buses=["22271.1.2.3" "ET2_535.1.2.3.4"] conns=[Delta Wye ] kvs=[13.8 0.38] taps=[1.045 1.045] kvas=[30.0 30.0] %loadloss=2.160 %noloadloss=1.200
New "Reactor.TRF_2_535 phases=1 bus1="ET2_535.4" R=15 X=0 basefeq=60

New "Transformer.TRF_1_201" phases=3 windings=2 buses=["82661.1.2.3" "ET1_201.1.2.3.4"] conns=[Delta Wye ] kvs=[13.8 0.38] taps=[1.045 1.045] kvas=[112.5 112.5] %loadloss=1.876 %noloadloss=0.382
New "Reactor.TRF_1_201 phases=1 bus1="ET1_201.4" R=15 X=0 basefeq=60

New "Transformer.TRF_1_62" phases=3 windings=2 buses=["5841.1.2.3" "ET1_62.1.2.3.4"] conns=[Delta Wye ] kvs=[13.8 0.38] taps=[1.045 1.045] kvas=[75.0 75.0] %loadloss=1.769 %noloadloss=0.445
New "Reactor.TRF_1_62 phases=1 bus1="ET1_62.4" R=15 X=0 basefeq=60

New "Transformer.TRF_2_513" phases=3 windings=2 buses=["30401.1.2.3" "ET2_513.1.2.3.4"] conns=[Delta Wye ] kvs=[13.8 0.38] taps=[1.045 1.045] kvas=[75.0 75.0] %loadloss=1.769 %noloadloss=0.445
New "Reactor.TRF_2_513 phases=1 bus1="ET2_513.4" R=15 X=0 basefeq=60

New "Transformer.TRF_1_123" phases=3 windings=2 buses=["15411.1.2.3" "ET1_123.1.2.3.4"] conns=[Delta Wye ] kvs=[13.8 0.38] taps=[1.045 1.045] kvas=[45.0 45.0] %loadloss=1.853 %noloadloss=0.478
New "Reactor.TRF_1_123 phases=1 bus1="ET1_123.4" R=15 X=0 basefeq=60

New "Transformer.TRF_1_161" phases=3 windings=2 buses=["74881.1.2.3" "ET1_161.1.2.3.4"] conns=[Delta Wye ] kvs=[13.8 0.38] taps=[1.045 1.045] kvas=[75.0 75.0] %loadloss=1.769 %noloadloss=0.445
New "Reactor.TRF_1_161 phases=1 bus1="ET1_161.4" R=15 X=0 basefeq=60

New "Transformer.TRF_1_163" phases=1 windings=3 buses=["75141.3" "ET1_163.2.3.4"] conns=[Delta Wye ] kvs=[13.8 0.38] taps=[1.045 1.045 1.045] kvas=[10.0 10.0 10.0] %loadloss=2.150 %noloadloss=0.590
New "Reactor.TRF_1_163 phases=1 bus1="ET1_163.4" R=15 X=0 basefeq=60

New "Transformer.TRF_1_169" phases=3 windings=2 buses=["3651.1.2.3" "ET1_169.1.2.3.4"] conns=[Delta Wye ] kvs=[13.8 0.38] taps=[1.045 1.045] kvas=[112.5 112.5] %loadloss=1.876 %noloadloss=0.382
New "Reactor.TRF_1_169 phases=1 bus1="ET1_169.4" R=15 X=0 basefeq=60

New "Transformer.TRF_1_170" phases=3 windings=2 buses=["75861.1.2.3" "ET1_170.1.2.3.4"] conns=[Delta Wye ] kvs=[13.8 0.38] taps=[1.045 1.045] kvas=[112.5 112.5] %loadloss=1.876 %noloadloss=0.382
New "Reactor.TRF_1_170 phases=1 bus1="ET1_170.4" R=15 X=0 basefeq=60

New "Transformer.TRF_1_172" phases=3 windings=2 buses=["82291.1.2.3" "ET1_172.1.2.3.4"] conns=[Delta Wye ] kvs=[13.8 0.38] taps=[1.045 1.045] kvas=[45.0 45.0] %loadloss=1.853 %noloadloss=0.478
New "Reactor.TRF_1_172 phases=1 bus1="ET1_172.4" R=15 X=0 basefeq=60

New "Transformer.TRF_1_173" phases=3 windings=2 buses=["66521.1.2.3" "ET1_173.1.2.3.4"] conns=[Delta Wye ] kvs=[13.8 0.38] taps=[1.045 1.045] kvas=[150.0 150.0] %loadloss=1.249 %noloadloss=0.308
New "Reactor.TRF_1_173 phases=1 bus1="ET1_173.4" R=15 X=0 basefeq=60

New "Transformer.TRF_1_174" phases=3 windings=2 buses=["76001.1.2.3" "ET1_174.1.2.3.4"] conns=[Delta Wye ] kvs=[13.8 0.38] taps=[1.045 1.045] kvas=[45.0 45.0] %loadloss=1.853 %noloadloss=0.478
New "Reactor.TRF_1_174 phases=1 bus1="ET1_174.4" R=15 X=0 basefeq=60

New "Transformer.TRF_2_530" phases=3 windings=2 buses=["22241.1.2.3" "ET2_530.1.2.3.4"] conns=[Delta Wye ] kvs=[13.8 0.38] taps=[1.045 1.045] kvas=[75.0 75.0] %loadloss=1.769 %noloadloss=0.445
New "Reactor.TRF_2_530 phases=1 bus1="ET2_530.4" R=15 X=0 basefeq=60

New "Transformer.TRF_2_531" phases=3 windings=2 buses=["76321.1.2.3" "ET2_531.1.2.3.4"] conns=[Delta Wye ] kvs=[13.8 0.38] taps=[1.045 1.045] kvas=[225.0 225.0] %loadloss=1.200 %noloadloss=0.340
New "Reactor.TRF_2_531 phases=1 bus1="ET2_531.4" R=15 X=0 basefeq=60

New "Transformer.TRF_1_86" phases=3 windings=2 buses=["13231.1.2.3" "ET1_86.1.2.3.4"] conns=[Delta Wye ] kvs=[13.8 0.38] taps=[1.045 1.045] kvas=[30.0 30.0] %loadloss=2.160 %noloadloss=1.200
New "Reactor.TRF_1_86 phases=1 bus1="ET1_86.4" R=15 X=0 basefeq=60

New "Transformer.TRF_2_527" phases=3 windings=2 buses=["68281.1.2.3" "ET2_527.1.2.3.4"] conns=[Delta Wye ] kvs=[13.8 0.38] taps=[1.045 1.045] kvas=[75.0 75.0] %loadloss=1.769 %noloadloss=0.445
New "Reactor.TRF_2_527 phases=1 bus1="ET2_527.4" R=15 X=0 basefeq=60

New "Transformer.TRF_2_500" phases=3 windings=2 buses=["64131.1.2.3" "ET2_500.1.2.3.4"] conns=[Delta Wye ] kvs=[13.8 0.38] taps=[1.045 1.045] kvas=[15.0 15.0] %loadloss=2.467 %noloadloss=0.733
New "Reactor.TRF_2_500 phases=1 bus1="ET2_500.4" R=15 X=0 basefeq=60

New "Transformer.TRF_1_71" phases=3 windings=2 buses=["72341.1.2.3" "ET1_71.1.2.3.4"] conns=[Delta Wye ] kvs=[13.8 0.38] taps=[1.045 1.045] kvas=[45.0 45.0] %loadloss=1.853 %noloadloss=0.478
New "Reactor.TRF_1_71 phases=1 bus1="ET1_71.4" R=15 X=0 basefeq=60

New "Transformer.TRF_1_52" phases=3 windings=2 buses=["4271.1.2.3" "ET1_52.1.2.3.4"] conns=[Delta Wye ] kvs=[13.8 0.38] taps=[1.045 1.045] kvas=[225.0 225.0] %loadloss=1.200 %noloadloss=0.340
New "Reactor.TRF_1_52 phases=1 bus1="ET1_52.4" R=15 X=0 basefeq=60

New "Transformer.TRF_2_512" phases=3 windings=2 buses=["73221.1.2.3" "ET2_512.1.2.3.4"] conns=[Delta Wye ] kvs=[13.8 0.38] taps=[1.045 1.045] kvas=[300.0 300.0] %loadloss=1.170 %noloadloss=0.324
New "Reactor.TRF_2_512 phases=1 bus1="ET2_512.4" R=15 X=0 basefeq=60

New "Transformer.TRF_1_42" phases=3 windings=2 buses=["7421.1.2.3" "ET1_42.1.2.3.4"] conns=[Delta Wye ] kvs=[13.8 0.38] taps=[1.045 1.045] kvas=[112.5 112.5] %loadloss=1.876 %noloadloss=0.382
New "Reactor.TRF_1_42 phases=1 bus1="ET1_42.4" R=15 X=0 basefeq=60

New "Transformer.TRF_1_78" phases=3 windings=2 buses=["17051.1.2.3" "ET1_78.1.2.3.4"] conns=[Delta Wye ] kvs=[13.8 0.38] taps=[1.045 1.045] kvas=[150.0 150.0] %loadloss=1.249 %noloadloss=0.308
New "Reactor.TRF_1_78 phases=1 bus1="ET1_78.4" R=15 X=0 basefeq=60

New "Transformer.TRF_1_100" phases=3 windings=2 buses=["17391.1.2.3" "ET1_100.1.2.3.4"] conns=[Delta Wye ] kvs=[13.8 0.38] taps=[1.045 1.045] kvas=[45.0 45.0] %loadloss=1.853 %noloadloss=0.478
New "Reactor.TRF_1_100 phases=1 bus1="ET1_100.4" R=15 X=0 basefeq=60

New "Transformer.TRF_1_96" phases=1 windings=3 buses=["16741.2" "ET1_96.1.2.4"] conns=[Delta Wye ] kvs=[13.8 0.38] taps=[1.045 1.045 1.045] kvas=[10.0 10.0 10.0] %loadloss=2.150 %noloadloss=0.530
New "Reactor.TRF_1_96 phases=1 bus1="ET1_96.4" R=15 X=0 basefeq=60

New "Transformer.TRF_1_76" phases=3 windings=2 buses=["12361.1.2.3" "ET1_76.1.2.3.4"] conns=[Delta Wye ] kvs=[13.8 0.38] taps=[1.045 1.045] kvas=[500.0 500.0] %loadloss=1.424 %noloadloss=0.292
New "Reactor.TRF_1_76 phases=1 bus1="ET1_76.4" R=15 X=0 basefeq=60

New "Transformer.TRF_1_50" phases=3 windings=2 buses=["4641.1.2.3" "ET1_50.1.2.3.4"] conns=[Delta Wye ] kvs=[13.8 0.38] taps=[1.045 1.045] kvas=[45.0 45.0] %loadloss=1.853 %noloadloss=0.478
New "Reactor.TRF_1_50 phases=1 bus1="ET1_50.4" R=15 X=0 basefeq=60

New "Transformer.TRF_1_3" phases=3 windings=2 buses=["8931.1.2.3" "ET1_3.1.2.3.4"] conns=[Delta Wye ] kvs=[13.8 0.38] taps=[1.045 1.045] kvas=[112.5 112.5] %loadloss=1.876 %noloadloss=0.382
New "Reactor.TRF_1_3 phases=1 bus1="ET1_3.4" R=15 X=0 basefeq=60

New "Transformer.TRF_2_521" phases=3 windings=2 buses=["28741.1.2.3" "ET2_521.1.2.3.4"] conns=[Delta Wye ] kvs=[13.8 0.38] taps=[1.045 1.045] kvas=[45.0 45.0] %loadloss=1.853 %noloadloss=0.478
New "Reactor.TRF_2_521 phases=1 bus1="ET2_521.4" R=15 X=0 basefeq=60

New "Transformer.TRF_2_518" phases=3 windings=2 buses=["17791.1.2.3" "ET2_518.1.2.3.4"] conns=[Delta Wye ] kvs=[13.8 0.38] taps=[1.045 1.045] kvas=[112.5 112.5] %loadloss=1.876 %noloadloss=0.382
New "Reactor.TRF_2_518 phases=1 bus1="ET2_518.4" R=15 X=0 basefeq=60

New "Transformer.TRF_2_519" phases=3 windings=2 buses=["22711.1.2.3" "ET2_519.1.2.3.4"] conns=[Delta Wye ] kvs=[13.8 0.38] taps=[1.045 1.045] kvas=[150.0 150.0] %loadloss=1.249 %noloadloss=0.308
New "Reactor.TRF_2_519 phases=1 bus1="ET2_519.4" R=15 X=0 basefeq=60

New "Transformer.TRF_2_525" phases=3 windings=2 buses=["28141.1.2.3" "ET2_525.1.2.3.4"] conns=[Delta Wye ] kvs=[13.8 0.38] taps=[1.045 1.045] kvas=[75.0 75.0] %loadloss=1.769 %noloadloss=0.445
New "Reactor.TRF_2_525 phases=1 bus1="ET2_525.4" R=15 X=0 basefeq=60

New "Transformer.TRF_2_505" phases=3 windings=2 buses=["30061.1.2.3" "ET2_505.1.2.3.4"] conns=[Delta Wye ] kvs=[13.8 0.38] taps=[1.045 1.045] kvas=[112.5 112.5] %loadloss=1.876 %noloadloss=0.382
New "Reactor.TRF_2_505 phases=1 bus1="ET2_505.4" R=15 X=0 basefeq=60

New "Transformer.TRF_2_511" phases=3 windings=2 buses=["29791.1.2.3" "ET2_511.1.2.3.4"] conns=[Delta Wye ] kvs=[13.8 0.38] taps=[1.045 1.045] kvas=[112.5 112.5] %loadloss=1.876 %noloadloss=0.382
New "Reactor.TRF_2_511 phases=1 bus1="ET2_511.4" R=15 X=0 basefeq=60

New "Transformer.TRF_1_63" phases=3 windings=2 buses=["4611.1.2.3" "ET1_63.1.2.3.4"] conns=[Delta Wye ] kvs=[13.8 0.38] taps=[1.045 1.045] kvas=[150.0 150.0] %loadloss=1.249 %noloadloss=0.308
New "Reactor.TRF_1_63 phases=1 bus1="ET1_63.4" R=15 X=0 basefeq=60

New "Transformer.TRF_1_102" phases=3 windings=2 buses=["1261.1.2.3" "ET1_102.1.2.3.4"] conns=[Delta Wye ] kvs=[13.8 0.38] taps=[1.045 1.045] kvas=[5875.0 5875.0] %loadloss=1.220 %noloadloss=0.180
New "Reactor.TRF_1_102 phases=1 bus1="ET1_102.4" R=15 X=0 basefeq=60

New "Transformer.TRF_2_526" phases=3 windings=2 buses=["21381.1.2.3" "ET2_526.1.2.3.4"] conns=[Delta Wye ] kvs=[13.8 0.38] taps=[1.045 1.045] kvas=[75.0 75.0] %loadloss=1.769 %noloadloss=0.445
New "Reactor.TRF_2_526 phases=1 bus1="ET2_526.4" R=15 X=0 basefeq=60

New "Transformer.TRF_2_524" phases=3 windings=2 buses=["21781.1.2.3" "ET2_524.1.2.3.4"] conns=[Delta Wye ] kvs=[13.8 0.38] taps=[1.045 1.045] kvas=[75.0 75.0] %loadloss=1.769 %noloadloss=0.445
...